*SOIL WATER DAILY OUTPUT FILE

*DSSAT Cropping System Model Ver. 4.8.2.000 -release  NOV 18, 2024 00:11:06

*RUN   1        : silt_loam_13in_irr        MZCER048 UNLI2201    1
 MODEL          : MZCER048 - Maize
 EXPERIMENT     : UNLI2201 MZ IRRIGATED MAIZE PRODUCTION
 DATA PATH      :
 TREATMENT  1   : silt_loam_13in_irr        MZCER048
  
!                                                                                                                                   Soil water content (mm3/mm3) by soil depth (cm):
!                                                                                                                                   0-5    5-15   15-23   23-38   38-53   53-61   61-69   69-84   84-99  99-114 114-130 130-145 145-160
@YEAR DOY   DAS    SWTD    SWXD    ROFC    DRNC    PREC    IR#C    IRRC   LATFC    DTWT    MWTD    TDFD    TDFC    ROFD    ROSD    SW1D    SW2D    SW3D    SW4D    SW5D    SW6D    SW7D    SW8D    SW9D   SW10D   SW11D   SW12D   SW13D
 2022 120     0     298     208       0       0       0       0       0       0     160    0.00     0.0     0.0    0.00    0.00   0.200   0.207   0.210   0.210   0.170   0.150   0.150   0.190   0.180   0.180   0.180   0.200   0.190
 2022 121     1     297     207       0       0       0       0       0       0     160    0.00     0.0     0.0    0.00    0.00   0.185   0.206   0.210   0.210   0.170   0.150   0.150   0.190   0.180   0.180   0.180   0.200   0.190
 2022 122     2     330     240       3       0      37       0       0       0     160    0.00     0.0     0.0    2.93    0.00   0.385   0.346   0.279   0.224   0.176   0.154   0.153   0.190   0.180   0.180   0.180   0.200   0.190
 2022 123     3     314     225       3      13      37       0       0       0     160    0.00     0.0     0.0    0.00    0.00   0.292   0.284   0.248   0.216   0.172   0.152   0.152   0.189   0.179   0.179   0.179   0.199   0.189
 2022 124     4     319     229       3      13      42       0       0       0     160    0.00     0.0     0.0    0.00    0.00   0.323   0.273   0.266   0.225   0.177   0.156   0.154   0.190   0.179   0.179   0.179   0.199   0.189
 2022 125     5     320     230       3      13      45       0       0       0     160    0.00     0.0     0.0    0.00    0.00   0.301   0.262   0.270   0.231   0.182   0.163   0.157   0.192   0.178   0.179   0.179   0.199   0.189
 2022 126     6     306     216       3      20      45       0       0       0     160    0.00     0.0     0.0    0.00    0.00   0.231   0.230   0.239   0.218   0.175   0.156   0.152   0.190   0.178   0.179   0.179   0.199   0.189
 2022 127     7     312     222       3      20      56       0       0       0     160    0.00     0.0     0.0    0.00    0.00   0.339   0.240   0.243   0.219   0.176   0.158   0.154   0.190   0.177   0.177   0.177   0.197   0.188
 2022 128     8     302     212       3      25      56       0       0       0     160    0.00     0.0     0.0    0.00    0.00   0.251   0.217   0.223   0.211   0.171   0.153   0.150   0.188   0.178   0.179   0.179   0.199   0.189
 2022 129     9     296     206       3      25      56       0       0       0     160    0.00     0.0     0.0    0.00    0.00   0.203   0.203   0.212   0.207   0.168   0.151   0.148   0.188   0.178   0.178   0.179   0.198   0.189
 2022 130    10     290     200       3      25      56       0       0       0     160    0.00     0.0     0.0    0.00    0.00   0.178   0.194   0.205   0.202   0.165   0.148   0.147   0.186   0.176   0.177   0.177   0.197   0.187
 2022 131    11     289     200       3      25      56       0       0       0     160    0.00     0.0     0.0    0.00    0.00   0.165   0.193   0.205   0.202   0.165   0.148   0.147   0.186   0.176   0.177   0.177   0.197   0.187
 2022 132    12     289     199       3      25      56       0       0       0     160    0.00     0.0     0.0    0.00    0.00   0.152   0.192   0.205   0.202   0.165   0.148   0.147   0.186   0.176   0.177   0.177   0.197   0.187
 2022 133    13     288     198       3      25      56       0       0       0     160    0.00     0.0     0.0    0.00    0.00   0.141   0.191   0.204   0.202   0.165   0.148   0.147   0.186   0.176   0.177   0.177   0.197   0.187
 2022 134    14     287     197       3      25      56       0       0       0     160    0.00     0.0     0.0    0.00    0.00   0.131   0.190   0.204   0.202   0.165   0.148   0.147   0.186   0.176   0.177   0.177   0.197   0.187
 2022 135    15     288     198       3      25      57       0       0       0     160    0.00     0.0     0.0    0.00    0.00   0.141   0.189   0.204   0.202   0.165   0.148   0.147   0.186   0.176   0.177   0.177   0.197   0.187
 2022 136    16     287     197       3      25      58       0       0       0     160    0.00     0.0     0.0    0.00    0.00   0.136   0.188   0.204   0.202   0.165   0.148   0.146   0.186   0.176   0.177   0.177   0.197   0.187
 2022 137    17     287     197       3      25      58       0       0       0     160    0.00     0.0     0.0    0.00    0.00   0.126   0.187   0.203   0.201   0.165   0.148   0.146   0.186   0.176   0.177   0.177   0.197   0.187
 2022 138    18     286     196       3      25      58       0       0       0     160    0.00     0.0     0.0    0.00    0.00   0.117   0.186   0.203   0.201   0.165   0.148   0.146   0.186   0.176   0.177   0.177   0.197   0.187
 2022 139    19     285     196       3      25      58       0       0       0     160    0.00     0.0     0.0    0.00    0.00   0.109   0.185   0.203   0.201   0.165   0.148   0.146   0.186   0.176   0.177   0.177   0.197   0.187
 2022 140    20     285     195       3      25      58       0       0       0     160    0.00     0.0     0.0    0.00    0.00   0.101   0.184   0.202   0.201   0.165   0.148   0.146   0.186   0.176   0.177   0.177   0.197   0.187
 2022 141    21     284     195       3      25      58       0       0       0     160    0.00     0.0     0.0    0.00    0.00   0.095   0.183   0.202   0.201   0.165   0.148   0.146   0.185   0.176   0.177   0.177   0.197   0.187
 2022 142    22     284     194       3      25      58       0       0       0     160    0.00     0.0     0.0    0.00    0.00   0.088   0.182   0.202   0.201   0.165   0.148   0.146   0.185   0.176   0.177   0.177   0.197   0.187
 2022 143    23     294     204       3      25      68       0       0       0     160    0.00     0.0     0.0    0.00    0.00   0.253   0.200   0.201   0.201   0.165   0.148   0.146   0.185   0.176   0.177   0.177   0.197   0.187
 2022 144    24     294     205       3      25      71       0       0       0     160    0.00     0.0     0.0    0.00    0.00   0.254   0.210   0.205   0.200   0.164   0.148   0.146   0.185   0.176   0.176   0.177   0.197   0.187
 2022 145    25     289     199       3      25      71       0       0       0     160    0.00     0.0     0.0    0.00    0.00   0.204   0.199   0.204   0.200   0.161   0.145   0.144   0.183   0.174   0.175   0.175   0.195   0.186
 2022 146    26     283     193       3      25      71       0       0       0     160    0.00     0.0     0.0    0.00    0.00   0.178   0.191   0.198   0.196   0.159   0.143   0.142   0.181   0.172   0.173   0.174   0.194   0.184
 2022 147    27     282     192       3      25      71       0       0       0     160    0.00     0.0     0.0    0.00    0.00   0.164   0.190   0.197   0.196   0.159   0.143   0.142   0.181   0.172   0.173   0.174   0.194   0.184
 2022 148    28     282     192       3      25      71       0       0       0     160    0.00     0.0     0.0    0.00    0.00   0.151   0.189   0.197   0.196   0.159   0.143   0.142   0.181   0.172   0.173   0.174   0.194   0.184
 2022 149    29     281     191       3      25      71       0       0       0     160    0.00     0.0     0.0    0.00    0.00   0.139   0.187   0.197   0.196   0.159   0.143   0.142   0.181   0.172   0.173   0.174   0.194   0.184
 2022 150    30     286     196       3      25      77       0       0       0     160    0.00     0.0     0.0    0.00    0.00   0.224   0.197   0.196   0.196   0.159   0.143   0.142   0.181   0.172   0.173   0.174   0.194   0.184
 2022 151    31     282     193       3      25      77       0       0       0     160    0.00     0.0     0.0    0.00    0.00   0.197   0.196   0.192   0.193   0.157   0.142   0.141   0.179   0.171   0.172   0.173   0.193   0.184
 2022 152    32     281     191       3      25      77       0       0       0     160    0.00     0.0     0.0    0.00    0.00   0.180   0.194   0.192   0.193   0.157   0.142   0.141   0.179   0.171   0.172   0.173   0.193   0.184
 2022 153    33     280     190       3      25      77       0       0       0     160    0.00     0.0     0.0    0.00    0.00   0.164   0.192   0.191   0.193   0.157   0.142   0.141   0.179   0.171   0.172   0.173   0.193   0.184
 2022 154    34     279     189       3      25      77       0       0       0     160    0.00     0.0     0.0    0.00    0.00   0.148   0.190   0.190   0.193   0.157   0.142   0.141   0.179   0.171   0.172   0.173   0.193   0.184
 2022 155    35     278     188       3      25      77       0       0       0     160    0.00     0.0     0.0    0.00    0.00   0.133   0.188   0.189   0.192   0.157   0.142   0.141   0.179   0.171   0.172   0.173   0.193   0.184
 2022 156    36     277     187       3      25      77       0       0       0     160    0.00     0.0     0.0    0.00    0.00   0.119   0.186   0.188   0.192   0.157   0.142   0.141   0.179   0.171   0.172   0.173   0.193   0.184
 2022 157    37     277     187       3      25      78       0       0       0     160    0.00     0.0     0.0    0.00    0.00   0.127   0.182   0.185   0.192   0.157   0.142   0.141   0.179   0.171   0.172   0.173   0.193   0.184
 2022 158    38     287     197       3      25      90       0       0       0     160    0.00     0.0     0.0    0.00    0.00   0.299   0.207   0.186   0.190   0.156   0.141   0.140   0.178   0.170   0.172   0.172   0.192   0.183
 2022 159    39     280     190       3      25      90       0       0       0     160    0.00     0.0     0.0    0.00    0.00   0.220   0.194   0.202   0.185   0.153   0.139   0.138   0.176   0.169   0.170   0.171   0.191   0.182
 2022 160    40     276     186       3      25      90       0       0       0     160    0.00     0.0     0.0    0.00    0.00   0.193   0.191   0.195   0.182   0.152   0.138   0.137   0.175   0.167   0.169   0.170   0.190   0.181
 2022 161    41     274     184       3      25      90       0       0       0     160    0.00     0.0     0.0    0.00    0.00   0.172   0.186   0.192   0.181   0.152   0.138   0.137   0.175   0.167   0.169   0.170   0.190   0.181
 2022 162    42     272     182       3      25      90       0       0       0     160    0.00     0.0     0.0    0.00    0.00   0.152   0.181   0.188   0.179   0.151   0.138   0.137   0.175   0.167   0.169   0.170   0.190   0.181
 2022 163    43     270     180       3      25      90       0       0       0     160    0.00     0.0     0.0    0.00    0.00   0.133   0.176   0.183   0.177   0.151   0.138   0.137   0.175   0.167   0.169   0.170   0.190   0.181
 2022 164    44     267     177       3      25      90       0       0       0     160    0.00     0.0     0.0    0.00    0.00   0.112   0.168   0.176   0.174   0.151   0.138   0.137   0.175   0.167   0.169   0.170   0.190   0.181
 2022 165    45     264     175       3      25      90       0       0       0     160    0.00     0.0     0.0    0.00    0.00   0.102   0.160   0.170   0.171   0.150   0.138   0.137   0.175   0.167   0.169   0.170   0.190   0.181
 2022 166    46     262     172       3      25      90       0       0       0     160    0.00     0.0     0.0    0.00    0.00   0.095   0.153   0.163   0.168   0.150   0.138   0.137   0.175   0.167   0.169   0.170   0.190   0.181
 2022 167    47     260     170       3      25      90       0       0       0     160    0.00     0.0     0.0    0.00    0.00   0.088   0.145   0.156   0.165   0.149   0.138   0.137   0.175   0.167   0.169   0.170   0.190   0.181
 2022 168    48     257     167       3      25      90       0       0       0     160    0.00     0.0     0.0    0.00    0.00   0.082   0.135   0.147   0.160   0.147   0.138   0.137   0.175   0.167   0.169   0.170   0.190   0.181
 2022 169    49     254     164       3      25      90       0       0       0     160    0.00     0.0     0.0    0.00    0.00   0.077   0.125   0.138   0.156   0.145   0.137   0.137   0.175   0.167   0.169   0.170   0.190   0.181
 2022 170    50     251     161       3      25      90       0       0       0     160    0.00     0.0     0.0    0.00    0.00   0.073   0.116   0.129   0.152   0.144   0.137   0.137   0.175   0.167   0.169   0.170   0.190   0.181
 2022 171    51     249     159       3      25      90       0       0       0     160    0.00     0.0     0.0    0.00    0.00   0.068   0.110   0.120   0.148   0.142   0.137   0.137   0.175   0.167   0.169   0.170   0.190   0.181
 2022 172    52     247     157       3      25      90       0       0       0     160    0.00     0.0     0.0    0.00    0.00   0.064   0.108   0.114   0.145   0.140   0.136   0.137   0.175   0.167   0.169   0.170   0.190   0.181
 2022 173    53     245     155       3      25      90       0       0       0     160    0.00     0.0     0.0    0.00    0.00   0.061   0.105   0.108   0.140   0.138   0.135   0.137   0.175   0.167   0.169   0.170   0.190   0.181
 2022 174    54     242     152       3      25      90       0       0       0     160    0.00     0.0     0.0    0.00    0.00   0.058   0.101   0.102   0.132   0.134   0.134   0.136   0.175   0.167   0.169   0.170   0.190   0.181
 2022 175    55     240     150       3      25      91       0       0       0     160    0.00     0.0     0.0    0.00    0.00   0.060   0.099   0.099   0.125   0.131   0.133   0.136   0.175   0.167   0.169   0.170   0.190   0.181
 2022 176    56     238     148       3      25      91       0       0       0     160    0.00     0.0     0.0    0.00    0.00   0.057   0.097   0.097   0.119   0.128   0.131   0.135   0.175   0.167   0.169   0.170   0.190   0.181
 2022 177    57     236     146       3      25      91       0       0       0     160    0.00     0.0     0.0    0.00    0.00   0.054   0.096   0.095   0.114   0.125   0.130   0.135   0.175   0.167   0.169   0.170   0.190   0.181
 2022 178    58     234     144       3      25      91       0       0       0     160    0.00     0.0     0.0    0.00    0.00   0.052   0.094   0.094   0.105   0.120   0.128   0.133   0.175   0.167   0.169   0.170   0.190   0.181
 2022 179    59     231     141       3      25      91       0       0       0     160    0.00     0.0     0.0    0.00    0.00   0.049   0.092   0.092   0.098   0.115   0.126   0.132   0.174   0.167   0.169   0.170   0.190   0.181
 2022 180    60     228     138       3      25      91       0       0       0     160    0.00     0.0     0.0    0.00    0.00   0.047   0.091   0.090   0.093   0.108   0.122   0.130   0.174   0.167   0.169   0.170   0.190   0.181
 2022 181    61     226     136       3      25      91       0       0       0     160    0.00     0.0     0.0    0.00    0.00   0.045   0.089   0.089   0.090   0.102   0.119   0.127   0.174   0.167   0.169   0.170   0.190   0.181
 2022 182    62     224     134       3      25      91       0       0       0     160    0.00     0.0     0.0    0.00    0.00   0.043   0.088   0.088   0.088   0.095   0.116   0.125   0.173   0.167   0.169   0.170   0.190   0.181
 2022 183    63     244     154       3      25     117       0       0       0     160    0.00     0.0     0.0    0.00    0.00   0.366   0.169   0.085   0.085   0.087   0.110   0.121   0.171   0.166   0.168   0.169   0.188   0.180
 2022 184    64     246     156       3      25     125       0       0       0     160    0.00     0.0     0.0    0.00    0.00   0.340   0.207   0.099   0.083   0.085   0.107   0.118   0.169   0.164   0.166   0.168   0.187   0.179
 2022 185    65     238     148       3      25     125       0       0       0     160    0.00     0.0     0.0    0.00    0.00   0.236   0.183   0.129   0.081   0.082   0.103   0.115   0.167   0.163   0.165   0.166   0.186   0.178
 2022 186    66     258     168       4      25     154       0       0       0     160    0.00     0.0     0.0    1.28    0.00   0.346   0.295   0.201   0.081   0.080   0.099   0.112   0.165   0.161   0.164   0.165   0.185   0.177
 2022 187    67     256     166       4      25     155       0       0       0     160    0.00     0.0     0.0    0.00    0.00   0.290   0.268   0.232   0.091   0.079   0.098   0.111   0.164   0.161   0.163   0.165   0.184   0.176
 2022 188    68     261     172       4      25     166       0       0       0     160    0.00     0.0     0.0    0.00    0.00   0.358   0.267   0.249   0.107   0.078   0.096   0.109   0.162   0.160   0.163   0.164   0.183   0.175
 2022 189    69     254     164       4      25     166       0       0       0     160    0.00     0.0     0.0    0.00    0.00   0.258   0.226   0.220   0.145   0.077   0.093   0.107   0.160   0.159   0.161   0.163   0.182   0.175
 2022 190    70     246     156       4      25     166       0       0       0     160    0.00     0.0     0.0    0.00    0.00   0.200   0.200   0.201   0.151   0.076   0.090   0.104   0.158   0.157   0.160   0.162   0.181   0.173
 2022 191    71     239     149       4      25     168       0       0       0     160    0.00     0.0     0.0    0.00    0.00   0.184   0.187   0.186   0.142   0.074   0.087   0.101   0.156   0.155   0.159   0.161   0.180   0.172
 2022 192    72     236     146       4      25     168       0       0       0     160    0.00     0.0     0.0    0.00    0.00   0.169   0.178   0.178   0.137   0.074   0.085   0.100   0.156   0.155   0.159   0.161   0.180   0.172
 2022 193    73     233     143       4      25     168       0       0       0     160    0.00     0.0     0.0    0.00    0.00   0.149   0.170   0.171   0.132   0.074   0.084   0.099   0.155   0.155   0.159   0.161   0.180   0.172
 2022 194    74     229     139       4      25     168       0       0       0     160    0.00     0.0     0.0    0.00    0.00   0.136   0.162   0.163   0.127   0.073   0.083   0.098   0.155   0.155   0.159   0.161   0.180   0.172
 2022 195    75     225     135       4      25     168       0       0       0     160    0.00     0.0     0.0    0.00    0.00   0.116   0.151   0.153   0.120   0.073   0.081   0.096   0.154   0.155   0.159   0.161   0.180   0.172
 2022 196    76     222     132       4      25     168       0       0       0     160    0.00     0.0     0.0    0.00    0.00   0.106   0.142   0.144   0.114   0.073   0.080   0.095   0.153   0.155   0.159   0.161   0.180   0.172
 2022 197    77     219     129       4      25     168       0       0       0     160    0.00     0.0     0.0    0.00    0.00   0.098   0.135   0.138   0.110   0.072   0.079   0.093   0.153   0.154   0.159   0.161   0.180   0.172
 2022 198    78     216     126       4      25     168       0       0       0     160    0.00     0.0     0.0    0.00    0.00   0.091   0.127   0.129   0.104   0.072   0.078   0.092   0.152   0.154   0.159   0.161   0.180   0.172
 2022 199    79     212     122       4      25     168       0       0       0     160    0.00     0.0     0.0    0.00    0.00   0.085   0.114   0.118   0.098   0.072   0.077   0.090   0.151   0.154   0.159   0.161   0.180   0.172
 2022 200    80     209     119       4      25     168       0       0       0     160    0.00     0.0     0.0    0.00    0.00   0.080   0.107   0.105   0.094   0.071   0.076   0.087   0.150   0.153   0.159   0.161   0.180   0.172
 2022 201    81     206     116       4      25     168       0       0       0     160    0.00     0.0     0.0    0.00    0.00   0.075   0.101   0.099   0.090   0.071   0.074   0.083   0.148   0.152   0.159   0.160   0.180   0.172
 2022 202    82     216     127       4      25     186       0       0       0     160    0.00     0.0     0.0    0.00    0.00   0.316   0.131   0.091   0.084   0.069   0.071   0.077   0.144   0.149   0.157   0.159   0.178   0.171
 2022 203    83     209     120       4      25     186       0       0       0     160    0.00     0.0     0.0    0.00    0.00   0.222   0.134   0.088   0.082   0.068   0.069   0.075   0.141   0.147   0.156   0.158   0.177   0.170
 2022 204    84     203     113       4      25     186       0       0       0     160    0.00     0.0     0.0    0.00    0.00   0.175   0.120   0.085   0.080   0.066   0.068   0.074   0.138   0.145   0.154   0.157   0.176   0.169
 2022 205    85     200     110       4      25     186       0       0       0     160    0.00     0.0     0.0    0.00    0.00   0.150   0.109   0.085   0.079   0.066   0.068   0.073   0.137   0.145   0.154   0.157   0.176   0.169
 2022 206    86     204     114       4      25     191       0       0       0     160    0.00     0.0     0.0    0.00    0.00   0.217   0.117   0.084   0.079   0.066   0.068   0.073   0.136   0.145   0.154   0.157   0.176   0.169
 2022 207    87     200     111       4      25     191       0       0       0     160    0.00     0.0     0.0    0.00    0.00   0.184   0.112   0.083   0.077   0.065   0.067   0.072   0.135   0.143   0.153   0.156   0.175   0.168
 2022 208    88     221     131       4      25     215       0       0       0     160    0.00     0.0     0.0    0.09    0.00   0.356   0.226   0.104   0.076   0.065   0.066   0.071   0.133   0.142   0.152   0.155   0.174   0.167
 2022 209    89     216     127       4      25     216       0       0       0     160    0.00     0.0     0.0    0.00    0.00   0.272   0.222   0.124   0.075   0.064   0.065   0.070   0.131   0.141   0.151   0.154   0.173   0.166
 2022 210    90     213     123       4      25     216       0       0       0     160    0.00     0.0     0.0    0.00    0.00   0.221   0.206   0.143   0.074   0.063   0.065   0.070   0.130   0.140   0.150   0.153   0.172   0.166
 2022 211    91     206     117       4      25     216       0       0       0     160    0.00     0.0     0.0    0.00    0.00   0.179   0.190   0.135   0.073   0.062   0.064   0.069   0.128   0.138   0.149   0.152   0.171   0.165
 2022 212    92     204     114       4      25     216       0       0       0     160    0.00     0.0     0.0    0.00    0.00   0.160   0.183   0.129   0.073   0.062   0.063   0.068   0.127   0.137   0.149   0.152   0.171   0.165
 2022 213    93     201     111       4      25     216       0       0       0     160    0.00     0.0     0.0    0.00    0.00   0.140   0.174   0.121   0.072   0.062   0.063   0.068   0.126   0.137   0.149   0.152   0.171   0.165
 2022 214    94     200     110       4      25     217       0       0       0     160    0.00     0.0     0.0    0.00    0.00   0.151   0.165   0.112   0.072   0.062   0.063   0.068   0.126   0.137   0.149   0.152   0.171   0.165
 2022 215    95     198     108       4      25     217       0       0       0     160    0.00     0.0     0.0    0.00    0.00   0.132   0.157   0.108   0.072   0.062   0.063   0.068   0.125   0.136   0.149   0.152   0.171   0.165
 2022 216    96     195     106       4      25     217       0       0       0     160    0.00     0.0     0.0    0.00    0.00   0.115   0.149   0.105   0.072   0.062   0.063   0.067   0.124   0.136   0.149   0.152   0.171   0.165
 2022 217    97     193     103       4      25     217       0       0       0     160    0.00     0.0     0.0    0.00    0.00   0.104   0.137   0.102   0.072   0.062   0.062   0.067   0.123   0.135   0.149   0.152   0.171   0.164
 2022 218    98     191     101       4      25     217       0       0       0     160    0.00     0.0     0.0    0.00    0.00   0.096   0.128   0.100   0.071   0.062   0.062   0.067   0.122   0.135   0.149   0.152   0.171   0.164
 2022 219    99     191     101       4      25     218       0       0       0     160    0.00     0.0     0.0    0.00    0.00   0.105   0.125   0.099   0.071   0.062   0.062   0.067   0.122   0.135   0.149   0.152   0.171   0.164
 2022 220   100     190     100       4      25     218       0       0       0     160    0.00     0.0     0.0    0.00    0.00   0.097   0.115   0.098   0.071   0.062   0.062   0.067   0.121   0.134   0.148   0.152   0.171   0.164
 2022 221   101     188      98       4      25     218       0       0       0     160    0.00     0.0     0.0    0.00    0.00   0.090   0.107   0.096   0.071   0.061   0.062   0.066   0.119   0.134   0.148   0.152   0.171   0.164
 2022 222   102     186      96       4      25     218       0       0       0     160    0.00     0.0     0.0    0.00    0.00   0.084   0.101   0.093   0.071   0.061   0.061   0.066   0.117   0.132   0.148   0.152   0.171   0.164
 2022 223   103     184      94       4      25     218       0       0       0     160    0.00     0.0     0.0    0.00    0.00   0.079   0.097   0.091   0.070   0.061   0.061   0.065   0.115   0.131   0.148   0.152   0.171   0.164
 2022 224   104     183      93       4      25     218       0       0       0     160    0.00     0.0     0.0    0.00    0.00   0.074   0.094   0.089   0.070   0.061   0.060   0.065   0.111   0.129   0.147   0.152   0.171   0.164
 2022 225   105     181      91       4      25     218       0       0       0     160    0.00     0.0     0.0    0.00    0.00   0.069   0.092   0.087   0.069   0.060   0.060   0.064   0.108   0.128   0.147   0.152   0.171   0.164
 2022 226   106     180      90       4      25     218       0       0       0     160    0.00     0.0     0.0    0.00    0.00   0.065   0.090   0.086   0.069   0.060   0.060   0.064   0.106   0.126   0.146   0.151   0.171   0.164
 2022 227   107     190     100       4      25     230       0       0       0     160    0.00     0.0     0.0    0.00    0.00   0.251   0.107   0.085   0.069   0.060   0.059   0.063   0.104   0.125   0.146   0.151   0.171   0.164
 2022 228   108     189      99       4      25     230       0       0       0     160    0.00     0.0     0.0    0.00    0.00   0.224   0.115   0.085   0.068   0.060   0.059   0.063   0.103   0.125   0.145   0.151   0.171   0.164
 2022 229   109     185      95       4      25     230       0       0       0     160    0.00     0.0     0.0    0.00    0.00   0.189   0.113   0.083   0.067   0.059   0.058   0.062   0.102   0.123   0.144   0.150   0.170   0.163
 2022 230   110     183      94       4      25     230       0       0       0     160    0.00     0.0     0.0    0.00    0.00   0.168   0.110   0.082   0.067   0.059   0.058   0.062   0.101   0.123   0.144   0.150   0.170   0.163
 2022 231   111     182      92       4      25     230       0       0       0     160    0.00     0.0     0.0    0.00    0.00   0.148   0.107   0.082   0.067   0.059   0.058   0.062   0.100   0.122   0.144   0.150   0.170   0.163
 2022 232   112     181      91       4      25     230       0       0       0     160    0.00     0.0     0.0    0.00    0.00   0.130   0.105   0.082   0.067   0.059   0.058   0.062   0.099   0.122   0.144   0.150   0.170   0.163
 2022 233   113     179      89       4      25     230       0       0       0     160    0.00     0.0     0.0    0.00    0.00   0.113   0.103   0.081   0.067   0.059   0.058   0.062   0.098   0.121   0.144   0.150   0.170   0.163
 2022 234   114     178      88       4      25     230       0       0       0     160    0.00     0.0     0.0    0.00    0.00   0.102   0.100   0.081   0.066   0.058   0.058   0.062   0.097   0.121   0.143   0.149   0.170   0.163
 2022 235   115     177      87       4      25     230       0       0       0     160    0.00     0.0     0.0    0.00    0.00   0.094   0.098   0.081   0.066   0.058   0.058   0.061   0.095   0.120   0.143   0.149   0.170   0.163
 2022 236   116     175      86       4      25     230       0       0       0     160    0.00     0.0     0.0    0.00    0.00   0.087   0.096   0.080   0.066   0.058   0.057   0.061   0.094   0.119   0.143   0.149   0.170   0.163
 2022 237   117     174      84       4      25     230       0       0       0     160    0.00     0.0     0.0    0.00    0.00   0.082   0.094   0.080   0.066   0.058   0.057   0.061   0.092   0.117   0.142   0.149   0.170   0.163
 2022 238   118     174      84       4      25     230       0       0       0     160    0.00     0.0     0.0    0.00    0.00   0.077   0.093   0.079   0.066   0.058   0.057   0.061   0.092   0.117   0.142   0.149   0.170   0.163
 2022 239   119     173      83       4      25     230       0       0       0     160    0.00     0.0     0.0    0.00    0.00   0.072   0.091   0.079   0.065   0.058   0.057   0.060   0.090   0.115   0.141   0.148   0.170   0.163
 2022 240   120     172      82       4      25     230       0       0       0     160    0.00     0.0     0.0    0.00    0.00   0.068   0.090   0.078   0.065   0.058   0.057   0.060   0.089   0.114   0.141   0.148   0.169   0.163
 2022 241   121     171      81       4      25     230       0       0       0     160    0.00     0.0     0.0    0.00    0.00   0.064   0.088   0.078   0.065   0.057   0.056   0.060   0.088   0.112   0.140   0.148   0.169   0.163
 2022 242   122     170      80       4      25     230       0       0       0     160    0.00     0.0     0.0    0.00    0.00   0.060   0.087   0.077   0.065   0.057   0.056   0.059   0.087   0.111   0.140   0.147   0.169   0.163
 2022 243   123     170      81       4      25     232       0       0       0     160    0.00     0.0     0.0    0.00    0.00   0.086   0.086   0.077   0.065   0.057   0.056   0.059   0.087   0.110   0.140   0.147   0.169   0.163