*GROWTH ASPECTS OUTPUT FILE

*DSSAT Cropping System Model Ver. 4.8.2.000 -release  NOV 18, 2024 00:11:06

*RUN   1        : silt_loam_13in_irr        MZCER048 UNLI2201    1
 MODEL          : MZCER048 - Maize
 EXPERIMENT     : UNLI2201 MZ IRRIGATED MAIZE PRODUCTION
 DATA PATH      :
 TREATMENT  1   : silt_loam_13in_irr        MZCER048
  
!                                                                                                                                                                                                                                      Root Dens. (cm/cm3) by soil depth (cm):
!                                                                                                                                                                                                                                      0-5    5-15   15-23   23-38   38-53   53-61   61-69   69-84   84-99  99-160
@YEAR DOY   DAS   DAP   L#SD   GSTD   LAID   LWAD   SWAD   GWAD   RWAD   VWAD   CWAD   G#AD   GWGD   HIAD   PWAD   P#AD   WSPD   WSGD   NSTD   EWSD  PST1A  PST2A   KSTD   LN%D   SH%D   HIPD   PWDD   PWTD     SLAD   CHTD   CWID   RDPD    RL1D    RL2D    RL3D    RL4D    RL5D    RL6D    RL7D    RL8D    RL9D   RL10D   CDAD   LDAD   SDAD   SNW0C   SNW1C  DTTD
 2022 129     9     0    0.0      0   0.00      0      0      0      0      0      0      0    0.0  0.000      0      0  0.000  0.000  0.000  0.000  0.000  0.000  0.000   0.00   0.00   0.00      0      0      0.0   0.00   0.00   0.05    0.00    0.00    0.00    0.00    0.00    0.00    0.00    0.00    0.00    0.00      0      0      0       0       0 10.11
 2022 130    10     1    0.0      0   0.00      0      0      0      0      0      0      0    0.0  0.000      0      0  0.000  0.000  0.000  0.000  0.000  0.000  0.000   0.00   0.00   0.00      0      0      0.0   0.00   0.00   0.06    0.00    0.00    0.00    0.00    0.00    0.00    0.00    0.00    0.00    0.00      0      0      0       0       0  9.87
 2022 131    11     2    0.0      0   0.00      0      0      0      0      0      0      0    0.0  0.000      0      0  0.000  0.000  0.000  0.000  0.000  0.000  0.000   0.00   0.00   0.00      0      0      0.0   0.00   0.00   0.09    0.00    0.00    0.00    0.00    0.00    0.00    0.00    0.00    0.00    0.00      0      0      0       0       0 16.47
 2022 132    12     3    0.0      0   0.00      0      0      0      0      0      0      0    0.0  0.000      0      0  0.000  0.000  0.000  0.000  0.000  0.000  0.000   0.00   0.00   0.00      0      0      0.0   0.00   0.00   0.11    0.00    0.00    0.00    0.00    0.00    0.00    0.00    0.00    0.00    0.00      0      0      0       0       0 14.94
 2022 133    13     4    0.0      0   0.00      0      0      0      0      0      0      0    0.0  0.000      0      0  0.000  0.000  0.000  0.000  0.000  0.000  0.000   0.00   0.00   0.00      0      0      0.0   0.00   0.00   0.13    0.00    0.00    0.00    0.00    0.00    0.00    0.00    0.00    0.00    0.00      0      0      0       0       0  9.12
 2022 134    14     5    0.0      0   0.00      0      0      0      0      0      0      0    0.0  0.000      0      0  0.000  0.000  0.000  0.000  0.000  0.000  0.000   0.00   0.00   0.00      0      0      0.0   0.00   0.00   0.14    0.00    0.00    0.00    0.00    0.00    0.00    0.00    0.00    0.00    0.00      0      0      0       0       0  8.88
 2022 135    15     6    0.0      0   0.00      0      0      0      0      0      0      0    0.0  0.000      0      0  0.000  0.000  0.000  0.000  0.000  0.000  0.000   0.00   0.00   0.00      0      0      0.0   0.00   0.00   0.15    0.00    0.00    0.00    0.00    0.00    0.00    0.00    0.00    0.00    0.00      0      0      0       0       0  9.67
 2022 136    16     7    0.0      0   0.00      0      0      0      0      0      0      0    0.0  0.000      0      0  0.000  0.000  0.000  0.000  0.000  0.000  0.000   0.00   0.00   0.00      0      0      0.0   0.00   0.00   0.17    0.00    0.00    0.00    0.00    0.00    0.00    0.00    0.00    0.00    0.00      0      0      0       0       0 12.79
 2022 137    17     8    1.0      1   0.00     16     16      0     16     32     32      0    0.0  0.000      0      0  0.000  0.000  0.012  0.000  0.000  0.000  0.000   4.40   0.00   0.00      0      0     23.0   0.00   0.00   0.19    0.32    0.16    0.06    0.00    0.00    0.00    0.00    0.00    0.00    0.00      0      0      0       0       0 15.27
 2022 138    18     9    2.0      1   0.01     16     16      0     17     32     32      0    0.0  0.000      0      0  0.000  0.000  0.011  0.000  0.000  0.000  0.000   4.40   0.00   0.00      0      0     42.5   0.00   0.00   0.20    0.32    0.17    0.06    0.00    0.00    0.00    0.00    0.00    0.00    0.00      0      0      0       0       0 14.32
 2022 139    19    10    2.0      1   0.01     16     16      0     18     32     32      0    0.0  0.000      0      0  0.000  0.000  0.005  0.000  0.000  0.000  0.000   4.40   0.00   0.00      0      0     64.2   0.00   0.00   0.22    0.33    0.17    0.07    0.00    0.00    0.00    0.00    0.00    0.00    0.00      0      0      0       0       0 14.14
 2022 140    20    11    2.0      1   0.01     16     16      0     18     32     32      0    0.0  0.000      0      0  0.000  0.000  0.005  0.000  0.000  0.000  0.000   4.40   0.00   0.00      0      0     66.3   0.00   0.00   0.22    0.33    0.18    0.07    0.00    0.00    0.00    0.00    0.00    0.00    0.00      0      0      0       0       0  1.45
 2022 141    21    12    2.0      1   0.01     16     16      0     18     32     32      0    0.0  0.000      0      0  0.000  0.000  0.004  0.000  0.000  0.000  0.000   4.40   0.00   0.00      0      0     38.3   0.00   0.00   0.22    0.34    0.18    0.07    0.00    0.00    0.00    0.00    0.00    0.00    0.00      0      0      0       0       0  1.03
 2022 142    22    13    2.0      1   0.00     16     16      0     19     32     32      0    0.0  0.000      0      0  0.000  0.000  0.003  0.000  0.000  0.000  0.000   4.40   0.00   0.00      0      0      5.7   0.00   0.00   0.22    0.34    0.18    0.08    0.00    0.00    0.00    0.00    0.00    0.00    0.00      0      0      0       0       0  2.61
 2022 143    23    14    2.0      1   0.00     16     16      0     19     32     32      0    0.0  0.000      0      0  0.000  0.000  0.003  0.000  0.000  0.000  0.000   4.40   0.00   0.00      0      0      8.4   0.00   0.00   0.22    0.34    0.18    0.08    0.00    0.00    0.00    0.00    0.00    0.00    0.00      0      0      0       0       0  1.70
 2022 144    24    15    3.0      1   0.00     16     16      0     19     32     32      0    0.0  0.000      0      0  0.000  0.000  0.002  0.000  0.000  0.000  0.000   4.40   0.00   0.00      0      0     11.4   0.00   0.00   0.23    0.33    0.18    0.08    0.00    0.00    0.00    0.00    0.00    0.00    0.00      0      0      0       0       0  1.94
 2022 145    25    16    3.0      1   0.00     16     16      0     19     32     32      0    0.0  0.000      0      0  0.000  0.000  0.000  0.000  0.000  0.000  0.000   4.40   0.00   0.00      0      0     22.5   0.00   0.00   0.23    0.34    0.18    0.08    0.00    0.00    0.00    0.00    0.00    0.00    0.00      0      0      0       0       0  6.68
 2022 146    26    17    3.0      1   0.01     16     16      0     20     32     32      0    0.0  0.000      0      0  0.000  0.000  0.000  0.000  0.000  0.000  0.000   4.40   0.00   0.00      0      0     39.1   0.00   0.00   0.24    0.34    0.19    0.08    0.00    0.00    0.00    0.00    0.00    0.00    0.00      0      0      0       0       0 10.56
 2022 147    27    18    3.0      1   0.01     16     16      0     21     32     32      0    0.0  0.000      0      0  0.000  0.000  0.000  0.000  0.000  0.000  0.000   4.40   0.00   0.00      0      0     68.1   0.00   0.00   0.25    0.37    0.19    0.09    0.00    0.00    0.00    0.00    0.00    0.00    0.00      0      0      0       0       0 14.98
 2022 148    28    19    4.0      1   0.03     16     16      0     23     32     32      0    0.0  0.000      0      0  0.000  0.000  0.000  0.000  0.000  0.000  0.000   4.40   0.00   0.00      0      0    165.4   0.01   0.00   0.26    0.41    0.20    0.10    0.00    0.00    0.00    0.00    0.00    0.00    0.00      0      0      0       0       0 15.07
 2022 149    29    20    4.0      1   0.04     16     16      0     27     32     32      0    0.0  0.000      0      0  0.000  0.000  0.000  0.000  0.000  0.000  0.000   4.40   0.00   0.00      0      0    274.8   0.02   0.00   0.27    0.52    0.22    0.11    0.00    0.00    0.00    0.00    0.00    0.00    0.00      0      0      0       0       0 14.83
 2022 150    30    21    4.0      1   0.05     19     16      0     31     35     35      0    0.0  0.000      0      0  0.000  0.000  0.000  0.000  0.000  0.000  0.000   4.02   0.00   0.00      0      0    277.3   0.02   0.00   0.28    0.61    0.23    0.13    0.01    0.00    0.00    0.00    0.00    0.00    0.00      0      0      0       0       0  7.12
 2022 151    31    22    4.0      1   0.06     23     16      0     36     39     39      0    0.0  0.000      0      0  0.000  0.000  0.000  0.000  0.000  0.000  0.000   3.80   0.00   0.00      0      0    275.2   0.03   0.00   0.28    0.70    0.25    0.15    0.01    0.00    0.00    0.00    0.00    0.00    0.00      0      0      0       0       0  7.11
 2022 152    32    23    5.0      1   0.07     26     16      0     44     42     42      0    0.0  0.000      0      0  0.000  0.000  0.000  0.000  0.000  0.000  0.000   3.77   0.00   0.00      0      0    272.2   0.03   0.00   0.29    0.90    0.27    0.17    0.01    0.00    0.00    0.00    0.00    0.00    0.00      0      0      0       0       0  7.28
 2022 153    33    24    5.0      1   0.08     32     16      0     54     48     48      0    0.0  0.000      0      0  0.000  0.000  0.000  0.000  0.000  0.000  0.000   3.69   0.00   0.00      0      0    265.4   0.04   0.00   0.29    1.14    0.31    0.21    0.02    0.00    0.00    0.00    0.00    0.00    0.00      0      0      0       0       1  8.55
 2022 154    34    25    5.0      1   0.10     39     16      0     66     55     55      0    0.0  0.000      0      0  0.000  0.000  0.000  0.000  0.000  0.000  0.000   3.56   0.00   0.00      0      0    260.3   0.04   0.00   0.30    1.36    0.37    0.27    0.04    0.00    0.00    0.00    0.00    0.00    0.00      0      0      0       0       1 10.74
 2022 155    35    26    5.0      1   0.13     50     16      0     80     66     66      0    0.0  0.000      0      0  0.000  0.000  0.000  0.000  0.000  0.000  0.000   3.35   0.00   0.00      0      0    252.6   0.05   0.00   0.31    1.51    0.46    0.36    0.06    0.00    0.00    0.00    0.00    0.00    0.00      0      0      0       0       1 14.99
 2022 156    36    27    6.0      1   0.15     63     16      0     93     79     79      0    0.0  0.000      0      0  0.000  0.000  0.000  0.000  0.000  0.000  0.000   3.36   0.00   0.00      0      0    245.4   0.07   0.00   0.32    1.59    0.54    0.44    0.09    0.00    0.00    0.00    0.00    0.00    0.00      0      0      0       0       2 14.32
 2022 157    37    28    6.0      1   0.19     78     16      0    116     94     94      0    0.0  0.000      0      0  0.000  0.000  0.000  0.000  0.000  0.000  0.000   3.03   0.00   0.00      0      0    237.8   0.08   0.00   0.34    1.74    0.70    0.60    0.15    0.00    0.00    0.00    0.00    0.00    0.00      0      0      0       0       2 15.48
 2022 158    38    29    6.0      1   0.21     89     16      0    122    105    105      0    0.0  0.000      0      0  0.000  0.000  0.045  0.000  0.000  0.000  0.000   3.02   0.00   0.00      0      0    231.9   0.09   0.00   0.35    1.78    0.74    0.65    0.17    0.00    0.00    0.00    0.00    0.00    0.00      0      0      0       0       3  9.77
 2022 159    39    30    6.0      1   0.23    103     16      0    156    119    119      0    0.0  0.000      0      0  0.000  0.000  0.076  0.000  0.000  0.000  0.000   2.80   0.00   0.00      0      0    224.5   0.10   0.00   0.37    1.99    0.96    0.86    0.28    0.00    0.00    0.00    0.00    0.00    0.00      0      0      0       0       3 11.83
 2022 160    40    31    7.0      2   0.26    110     16      0    179    126    126      0    0.0  0.000      0      0  0.000  0.000  0.097  0.000  0.000  0.000  0.000   2.80   0.00   0.00      0      0    235.8   0.11   0.00   0.39    2.13    1.10    1.01    0.36    0.00    0.00    0.00    0.00    0.00    0.00      0      0      0       0       4 13.73
 2022 161    41    32    7.0      2   0.29    127     16      0    212    143    143      0    0.0  0.000      0      0  0.000  0.000  0.131  0.000  0.000  0.000  0.000   2.57   0.00   0.00      0      0    227.2   0.12   0.00   0.41    2.33    1.30    1.21    0.48    0.01    0.00    0.00    0.00    0.00    0.00      0      0      0       0       5 15.26
 2022 162    42    33    7.0      2   0.33    151     16      0    247    167    167      0    0.0  0.000      0      0  0.000  0.000  0.133  0.000  0.000  0.000  0.000   2.26   0.00   0.00      0      0    218.0   0.14   0.00   0.43    2.53    1.51    1.42    0.59    0.04    0.00    0.00    0.00    0.00    0.00      0      0      0       0       6 19.67
 2022 163    43    34    8.0      2   0.37    177     16      0    285    193    193      0    0.0  0.000      0      0  0.000  0.000  0.164  0.000  0.000  0.000  0.000   2.04   0.00   0.00      0      0    209.1   0.16   0.00   0.46    2.74    1.73    1.63    0.71    0.09    0.00    0.00    0.00    0.00    0.00      0      0      0       0       7 20.59
 2022 164    44    35    8.0      2   0.41    206     16      0    319    222    222      0    0.0  0.000      0      0  0.000  0.000  0.207  0.000  0.000  0.000  0.000   1.89   0.00   0.00      0      0    200.1   0.18   0.00   0.49    2.92    1.91    1.82    0.81    0.15    0.00    0.00    0.00    0.00    0.00      0      0      0       0       9 23.20
 2022 165    45    36    9.0      2   0.44    227     16      0    362    243    243      0    0.0  0.000      0      0  0.000  0.000  0.279  0.000  0.000  0.000  0.000   1.84   0.00   0.00      0      0    192.4   0.19   0.00   0.51    3.14    2.14    2.05    0.93    0.23    0.00    0.00    0.00    0.00    0.00      0      0      0       0      10 17.50
 2022 166    46    37    9.0      2   0.46    246     16      0    407    262    262      0    0.0  0.000      0      0  0.000  0.000  0.335  0.000  0.000  0.000  0.000   1.80   0.00   0.00      0      0    185.2   0.20   0.00   0.53    3.37    2.37    2.28    1.06    0.33    0.00    0.00    0.00    0.00    0.00      0      0      0       0      12 16.47
 2022 167    47    38    9.0      3   0.47    266     16      0    453    282    282      0    0.0  0.000      0      0  0.000  0.000  0.352  0.000  0.000  0.000  0.000   1.76   0.00   0.00      0      0    176.4   0.20   0.00   0.55    3.60    2.61    2.52    1.19    0.43    0.02    0.00    0.00    0.00    0.00      0      0      0       0      14 16.06
 2022 168    48    39   10.0      3   0.50    296     16      0    492    313    313      0    0.0  0.000      0      0  0.000  0.000  0.356  0.000  0.000  0.000  0.000   1.66   0.00   0.00      0      0    169.8   0.22   0.00   0.57    3.80    2.81    2.72    1.30    0.51    0.05    0.00    0.00    0.00    0.00      0      0      0       0      16 22.37
 2022 169    49    40   10.0      3   0.54    332     17      0    532    349    349      0    0.0  0.000      0      0  0.000  0.000  0.363  0.000  0.000  0.000  0.000   1.54   0.00   0.00      0      0    163.7   0.23   0.00   0.60    3.78    3.04    2.95    1.42    0.60    0.11    0.00    0.00    0.00    0.00      0      0      0       0      19 23.53
 2022 170    50    41   11.0      3   0.58    367     20      0    567    387    387      0    0.0  0.000      0      0  0.000  0.000  0.403  0.000  0.000  0.000  0.000   1.44   0.00   0.00      0      0    157.8   0.25   0.00   0.62    3.76    3.23    3.14    1.53    0.68    0.18    0.00    0.00    0.00    0.00      0      0      0       0      21 23.45
 2022 171    51    42   11.0      3   0.61    399     22      0    592    422    422      0    0.0  0.000      0      0  0.000  0.000  0.446  0.000  0.000  0.000  0.000   1.38   0.00   0.00      0      0    152.1   0.26   0.00   0.65    3.74    3.37    3.28    1.61    0.74    0.22    0.02    0.00    0.00    0.00      0      0      0       0      24 21.30
 2022 172    52    43   11.0      3   0.61    416     24      0    614    440    440      0    0.0  0.000      0      0  0.000  0.000  0.486  0.000  0.000  0.000  0.000   1.37   0.00   0.00      0      0    146.5   0.26   0.00   0.66    3.72    3.49    3.40    1.67    0.79    0.26    0.04    0.00    0.00    0.00      0      0      0       0      27 11.60
 2022 173    53    44   12.0      3   0.61    434     27      0    645    461    461      0    0.0  0.000      0      0  0.000  0.000  0.510  0.000  0.000  0.000  0.000   1.36   0.00   0.00      0      0    141.2   0.26   0.00   0.67    3.70    3.65    3.56    1.76    0.86    0.31    0.09    0.00    0.00    0.00      0      0      0       0      30 11.95
 2022 174    54    45   12.0      3   0.63    464     32      0    680    496    496      0    0.0  0.000      0      0  0.000  0.000  0.500  0.000  0.000  0.000  0.000   1.31   0.00   0.00      0      0    136.6   0.27   0.00   0.69    3.68    3.84    3.75    1.86    0.94    0.37    0.15    0.00    0.00    0.00      0      0      0       0      34 18.63
 2022 175    55    46   12.0      3   0.65    494     39      0    706    532    532      0    0.0  0.000      0      0  0.000  0.000  0.496  0.000  0.000  0.000  0.000   1.27   0.00   0.00      0      0    132.2   0.28   0.00   0.71    3.66    3.97    3.88    1.94    1.00    0.42    0.19    0.00    0.00    0.00      0      0      0       0      37 17.65
 2022 176    56    47   13.0      3   0.65    513     43      0    737    556    556      0    0.0  0.000      0      0  0.000  0.000  0.516  0.000  0.000  0.000  0.000   1.25   0.00   0.00      0      0    127.7   0.28   0.00   0.72    3.64    4.00    4.00    2.02    1.06    0.47    0.24    0.01    0.00    0.00      0      0      0       0      40 12.10
 2022 177    57    48   13.0      3   0.65    525     47      0    766    571    571      0    0.0  0.000      0      0  0.000  0.000  0.536  0.000  0.000  0.000  0.000   1.25   0.00   0.00      0      0    123.2   0.28   0.00   0.73    3.63    4.00    4.00    2.11    1.13    0.51    0.29    0.02    0.00    0.00      0      0      0       0      44  8.11
 2022 178    58    49   13.0      3   0.65    544     53      0    804    597    597      0    0.0  0.000      0      0  0.000  0.000  0.538  0.000  0.000  0.000  0.000   1.23   0.00   0.00      0      0    119.1   0.28   0.00   0.74    3.61    4.00    4.00    2.21    1.21    0.57    0.35    0.04    0.00    0.00      0      0      0       0      48 13.35
 2022 179    59    50   13.0      3   0.66    568     62      0    834    630    630      0    0.0  0.000      0      0  0.000  0.000  0.528  0.000  0.000  0.000  0.000   1.20   0.00   0.00      0      0    115.6   0.28   0.00   0.75    3.59    4.00    4.00    2.29    1.27    0.62    0.40    0.06    0.00    0.00      0      0      0       0      52 15.81
 2022 180    60    51   14.0      3   0.67    600     76      0    855    676    676      0    0.0  0.000      0      0  0.000  0.000  0.526  0.000  0.000  0.000  0.000   1.15   0.00   0.00      0      0    112.5   0.29   0.00   0.77    3.57    4.00    4.00    2.35    1.31    0.66    0.44    0.08    0.00    0.00      0      0      0       0      56 20.10
 2022 181    61    52   14.0      3   0.69    629     91      0    868    720    720      0    0.0  0.000      0      0  0.000  0.000  0.532  0.000  0.000  0.000  0.000   1.11   0.00   0.00      0      0    109.5   0.30   0.00   0.79    3.55    4.00    4.00    2.39    1.34    0.68    0.46    0.09    0.00    0.00      0      0      0       0      60 19.00
 2022 182    62    53   15.0      3   0.69    653    105      0    886    758    758      0    0.0  0.000      0      0  0.000  0.000  0.548  0.000  0.000  0.000  0.000   1.08   0.00   0.00      0      0    106.3   0.30   0.00   0.81    3.53    4.00    4.00    2.43    1.38    0.71    0.49    0.11    0.00    0.00      0      0      0       0      65 16.20
 2022 183    63    54   15.0      3   0.69    673    118      0    910    790    790      0    0.0  0.000      0      0  0.000  0.000  0.561  0.000  0.000  0.000  0.000   1.10   0.00   0.00      0      0    103.0   0.30   0.00   0.82    3.64    4.00    4.00    2.49    1.42    0.74    0.52    0.13    0.00    0.00      0      0      0       0      69 14.15
 2022 184    64    55   15.0      3   0.70    702    139      0    927    841    841      0    0.0  0.000      0      0  0.000  0.000  0.544  0.000  0.000  0.000  0.000   1.06   0.00   0.00      0      0    100.4   0.30   0.00   0.84    3.71    4.00    4.00    2.53    1.45    0.76    0.55    0.15    0.00    0.00      0      0      0       0      74 19.51
 2022 185    65    56   16.0      3   0.72    733    165      0    947    898    898      0    0.0  0.000      0      0  0.000  0.000  0.537  0.000  0.000  0.000  0.000   1.03   0.00   0.00      0      0     98.0   0.31   0.00   0.86    3.80    4.00    4.00    2.57    1.49    0.79    0.58    0.18    0.00    0.00      0      0      0       0      78 19.66
 2022 186    66    57   16.0      3   0.73    764    194      0    962    958    958      0    0.0  0.000      0      0  0.000  0.000  0.539  0.000  0.000  0.000  0.000   1.01   0.00   0.00      0      0     95.6   0.31   0.00   0.87    3.86    4.00    4.00    2.60    1.51    0.81    0.60    0.19    0.00    0.00      0      0      0       0      83 19.88
 2022 187    67    58   17.0      3   0.73    788    220      0    961   1008   1008      0    0.0  0.000      0      0  0.000  0.000  0.544  0.000  0.000  0.000  0.000   1.00   0.00   0.00      0      0     93.1   0.31   0.00   0.88    3.86    4.00    4.00    2.60    1.51    0.81    0.60    0.19    0.00    0.00      0      0      0       0      88 15.80
 2022 188    68    59   17.0      3   0.75    824    261      0    961   1085   1085      0    0.0  0.000      0      0  0.000  0.000  0.549  0.000  0.000  0.000  0.000   0.96   0.00   0.00      0      0     91.1   0.32   0.00   0.90    3.86    4.00    4.00    2.60    1.51    0.81    0.60    0.20    0.00    0.00      0      0      0       0      93 16.05
 2022 189    69    60   17.0      3   0.76    857    316      0    968   1173   1175      0    0.0  0.000      1      0  0.000  0.000  0.545  0.000  0.000  0.000  0.000   0.92   0.00   0.00      0      1     89.1   0.33   0.00   0.91    3.89    4.00    4.00    2.61    1.52    0.82    0.61    0.21    0.01    0.00      0      0      0       0      98 17.20
 2022 190    70    61   18.0      3   0.77    886    376      0    974   1263   1266      0    0.0  0.000      4      0  0.000  0.000  0.553  0.000  0.000  0.000  0.000   0.89   0.00   0.00      0      4     86.9   0.33   0.00   0.93    3.92    4.00    4.00    2.62    1.53    0.83    0.62    0.21    0.01    0.00      0      0      0       0     102 19.62
 2022 191    71    62   18.0      3   0.77    912    439      0    980   1351   1357      0    0.0  0.000      7      0  0.000  0.000  0.561  0.000  0.000  0.000  0.000   0.86   0.00   0.00      0      7     84.7   0.33   0.00   0.94    3.94    4.00    4.00    2.63    1.54    0.84    0.63    0.22    0.02    0.00      0      0      0       0     107 21.24
 2022 192    72    63   18.0      3   0.76    926    474      0   1004   1400   1411      0    0.0  0.000     11      0  0.000  0.000  0.572  0.000  0.000  0.000  0.000   0.86   0.00   0.01      0     11     81.9   0.33   0.00   0.95    4.00    4.00    4.00    2.68    1.58    0.87    0.66    0.25    0.05    0.00      0      0      0       0     112 13.40
 2022 193    73    64   19.0      3   0.74    939    508      0   1026   1447   1463      0    0.0  0.000     16      0  0.000  0.000  0.579  0.000  0.000  0.000  0.000   0.86   0.00   0.01      0     16     79.2   0.33   0.00   0.97    4.00    4.00    4.00    2.72    1.62    0.89    0.69    0.27    0.08    0.00      0      0      0       0     117 13.55
 2022 194    74    65   19.0      3   0.74    956    557      0   1033   1514   1536      0    0.0  0.000     22      0  0.000  0.000  0.568  0.000  0.000  0.000  0.000   0.85   0.00   0.01      0     22     76.9   0.33   0.00   0.98    4.00    4.00    4.00    2.74    1.63    0.90    0.70    0.28    0.09    0.00      0      0      0       0     122 18.69
 2022 195    75    66   19.0      3   0.73    976    614      0   1044   1589   1623      0    0.0  0.000     34      0  0.000  0.000  0.554  0.000  0.000  0.000  0.000   0.84   0.00   0.02      0     34     74.9   0.33   0.00   1.00    4.00    4.00    4.00    2.76    1.64    0.92    0.71    0.29    0.11    0.00      0      0      0       0     127 21.33
 2022 196    76    67   20.0      3   0.72    992    658      0   1057   1649   1697      0    0.0  0.000     48      0  0.000  0.000  0.548  0.000  0.000  0.000  0.000   0.83   0.00   0.03      0     48     72.7   0.33   0.00   1.01    4.00    4.00    4.00    2.78    1.67    0.93    0.73    0.30    0.12    0.00      0      0      0       0     133 18.04
 2022 197    77    68   20.0      3   0.71   1006    701      0   1056   1708   1769      0    0.0  0.000     62      0  0.000  0.000  0.554  0.000  0.000  0.000  0.000   0.83   0.00   0.03      0     62     70.6   0.33   0.00   1.02    4.00    4.00    4.00    2.78    1.66    0.93    0.73    0.30    0.12    0.00      0      0      0       0     138 19.06
 2022 198    78    69   20.0      3   0.70   1020    732      0   1069   1752   1839      0    0.0  0.000     87      0  0.000  0.000  0.555  0.000  0.000  0.000  0.000   0.83   0.00   0.05      0     87     68.6   0.33   0.00   1.04    4.00    4.00    4.00    2.81    1.69    0.95    0.75    0.32    0.14    0.00      0      0      0       0     143 17.55
 2022 199    79    70   20.0      3   0.69   1037    762      0   1079   1798   1919      0    0.0  0.000    121      0  0.000  0.000  0.555  0.000  0.000  0.000  0.000   0.83   0.00   0.06      0    121     66.8   0.33   0.00   1.05    4.00    4.00    4.00    2.82    1.70    0.96    0.77    0.33    0.14    0.00      0      0      0       0     149 20.09
 2022 200    80    71   20.0      3   0.68   1050    774      0   1096   1824   1987      0    0.0  0.000    163      0  0.000  0.000  0.552  0.000  0.000  0.000  0.000   0.83   0.00   0.08      0    163     64.9   0.33   0.00   1.06    3.98    4.00    4.00    2.87    1.73    0.99    0.79    0.35    0.16    0.01      0      0      0       0     154 16.90
 2022 201    81    72   20.0      3   0.67   1063    777      0   1113   1841   2051      0    0.0  0.000    210      0  0.000  0.000  0.550  0.000  0.000  0.000  0.000   0.84   0.00   0.10      0    210     63.1   0.33   0.00   1.07    3.96    4.00    4.00    2.91    1.76    1.01    0.82    0.37    0.17    0.02      0      0      0       0     159 15.69
 2022 202    82    73   20.0      3   0.66   1080    789      0   1117   1869   2130      0    0.0  0.000    261      0  0.000  0.000  0.542  0.000  0.000  0.000  0.000   0.85   0.00   0.12      0    261     61.5   0.33   0.00   1.08    3.98    4.00    4.00    2.91    1.77    1.02    0.82    0.38    0.18    0.02      0      0      0       0     165 18.78
 2022 203    83    74   20.0      4   0.64   1065    875      0   1116   1940   2215      0    0.0  0.000    275      0  0.000  0.000  0.527  0.000  0.000  0.000  0.000   0.84   0.00   0.12      0    275     59.9   0.33   0.00   1.10    3.98    4.00    4.00    2.91    1.77    1.02    0.83    0.38    0.18    0.02      0      0      0       0     171 19.02
 2022 204    84    75   20.0      4   0.61   1049    947      0   1114   1996   2285      0    0.0  0.000    289      0  0.000  0.000  0.514  0.000  0.000  0.000  0.000   0.84   0.00   0.13      0    289     58.5   0.33   0.00   1.11    3.97    3.99    3.99    2.90    1.77    1.02    0.83    0.38    0.18    0.02      0      0      0       0     176 21.40
 2022 205    85    76   20.0      4   0.59   1032   1019      0   1113   2051   2355      0    0.0  0.000    305      0  0.000  0.000  0.517  0.000  0.000  0.000  0.000   0.83   0.00   0.13      0    305     57.3   0.33   0.00   1.12    3.97    3.99    3.99    2.89    1.76    1.02    0.83    0.38    0.18    0.02      0      0      0       0     182 15.00
 2022 206    86    77   20.0      4   0.57   1013   1035      0   1108   2049   2356      0    0.0  0.000    308      0  0.000  0.000  0.516  0.000  0.000  0.000  0.000   0.85   0.00   0.13      0    308     56.1   0.33   0.00   1.13    3.95    3.97    3.97    2.88    1.76    1.01    0.82    0.38    0.18    0.02      0      0      0       0     187 12.10
 2022 207    87    78   20.0      4   0.55    994   1076      0   1105   2071   2388      0    0.0  0.000    317      0  0.000  0.000  0.516  0.000  0.000  0.000  0.000   0.85   0.00   0.13      0    317     55.0   0.33   0.00   1.14    3.94    3.96    3.96    2.87    1.75    1.01    0.82    0.38    0.18    0.02      0      0      0       0     193 14.65
 2022 208    88    79   20.0      4   0.53    974   1120      0   1101   2095   2423      0    0.0  0.000    329      0  0.000  0.000  0.499  0.000  0.000  0.000  0.000   0.86   0.00   0.14      0    329     54.0   0.33   0.00   1.15    3.93    3.95    3.95    2.86    1.74    1.01    0.82    0.38    0.18    0.02      0      0      0       0     198 13.20