*MANAGEMENT OPERATIONS DAILY OUTPUT FILE

*DSSAT Cropping System Model Ver. 4.8.2.000 -release  MAY 26, 2025 18:07:50

*RUN   1        : farm_23                   MZCER048 UNLI2309    1
 MODEL          : MZCER048 - Maize
 EXPERIMENT     : UNLI2309 MZ PIO1366
 DATA PATH      :
 TREATMENT  1   : farm_23                   MZCER048
  

@YEAR DOY   DAS   DAP  IR#C  IRRC  NAPC  NICM  R#AC RESNC RESPC
 2020 110     1     0     0     0     0     0     1    55    16
 2020 111     2     0     0     0     0     0     1    55    16
 2020 112     3     0     0     0     0     0     1    55    16
 2020 113     4     0     0     0     0     0     1    55    16
 2020 114     5     0     0     0     0     0     1    55    16
 2020 115     6     0     0     0     0     0     1    55    16
 2020 116     7     0     0     0     0     0     1    55    16
 2020 117     8     0     0     0     0     0     1    55    16
 2020 118     9     0     0     0     0     0     1    55    16
 2020 119    10     0     0     0     0     0     1    55    16
 2020 120    11     0     0     0     0     0     1    55    16
 2020 121    12     0     0     0     0     0     1    55    16
 2020 122    13     0     2    25     2    30     1    55    16
 2020 123    14     1     2    25     2    30     1    55    16
 2020 124    15     2     2    25     2    30     1    55    16
 2020 125    16     3     3    51     2    30     1    55    16
 2020 126    17     4     3    51     2    30     1    55    16
 2020 127    18     5     3    51     2    30     1    55    16
 2020 128    19     6     3    51     2    30     1    55    16
 2020 129    20     7     4    76     2    30     1    55    16
 2020 130    21     8     4    76     2    30     1    55    16
 2020 131    22     9     4    76     2    30     1    55    16
 2020 132    23    10     5   102     2    30     1    55    16
 2020 133    24    11     5   102     2    30     1    55    16
 2020 134    25    12     5   102     2    30     1    55    16
 2020 135    26    13     5   102     2    30     1    55    16
 2020 136    27    14     6   127     2    30     1    55    16
 2020 137    28    15     6   127     2    30     1    55    16
 2020 138    29    16     6   127     2    30     1    55    16
 2020 139    30    17     7   152     2    30     1    55    16
 2020 140    31    18     7   152     2    30     1    55    16
 2020 141    32    19     7   152     2    30     1    55    16
 2020 142    33    20     7   152     2    30     1    55    16
 2020 143    34    21     8   178     2    30     1    55    16
 2020 144    35    22     8   178     2    30     1    55    16
 2020 145    36    23     8   178     2    30     1    55    16
 2020 146    37    24     9   203     2    30     1    55    16
 2020 147    38    25     9   203     2    30     1    55    16
 2020 148    39    26     9   203     2    30     1    55    16
 2020 149    40    27     9   203     2    30     1    55    16
 2020 150    41    28     9   203     2    30     1    55    16
 2020 151    42    29     9   203     2    30     1    55    16
 2020 152    43    30     9   203     2    30     1    55    16
 2020 153    44    31     9   203     2    30     1    55    16
 2020 154    45    32     9   203     2    30     1    55    16
 2020 155    46    33     9   203     2    30     1    55    16
 2020 156    47    34     9   203     2    30     1    55    16
 2020 157    48    35     9   203     2    30     1    55    16
 2020 158    49    36     9   203     2    30     1    55    16
 2020 159    50    37     9   203     2    30     1    55    16
 2020 160    51    38     9   203     2    30     1    55    16
 2020 161    52    39     9   203     2    30     1    55    16
 2020 162    53    40     9   203     2    30     1    55    16
 2020 163    54    41     9   203     2    30     1    55    16
 2020 164    55    42     9   203     2    30     1    55    16
 2020 165    56    43     9   203     2    30     1    55    16
 2020 166    57    44     9   203     2    30     1    55    16
 2020 167    58    45     9   203     2    30     1    55    16
 2020 168    59    46     9   203     2    30     1    55    16
 2020 169    60    47     9   203     2    30     1    55    16
 2020 170    61    48     9   203     2    30     1    55    16
 2020 171    62    49     9   203     2    30     1    55    16
 2020 172    63    50     9   203     2    30     1    55    16
 2020 173    64    51     9   203     2    30     1    55    16
 2020 174    65    52     9   203     2    30     1    55    16
 2020 175    66    53     9   203     2    30     1    55    16
 2020 176    67    54     9   203     2    30     1    55    16
 2020 177    68    55     9   203     2    30     1    55    16
 2020 178    69    56     9   203     2    30     1    55    16
 2020 179    70    57     9   203     2    30     1    55    16
 2020 180    71    58     9   203     2    30     1    55    16
 2020 181    72    59     9   203     2    30     1    55    16
 2020 182    73    60     9   203     2    30     1    55    16
 2020 183    74    61     9   203     2    30     1    55    16
 2020 184    75    62     9   203     2    30     1    55    16
 2020 185    76    63     9   203     2    30     1    55    16
 2020 186    77    64     9   203     2    30     1    55    16
 2020 187    78    65     9   203     2    30     1    55    16
 2020 188    79    66     9   203     2    30     1    55    16
 2020 189    80    67     9   203     2    30     1    55    16
 2020 190    81    68     9   203     2    30     1    55    16
 2020 191    82    69     9   203     2    30     1    55    16
 2020 192    83    70     9   203     2    30     1    55    16
 2020 193    84    71     9   203     2    30     1    55    16
 2020 194    85    72     9   203     2    30     1    55    16
 2020 195    86    73     9   203     2    30     1    55    16
 2020 196    87    74     9   203     2    30     1    55    16
 2020 197    88    75     9   203     2    30     1    55    16
 2020 198    89    76     9   203     2    30     1    55    16
 2020 199    90    77     9   203     2    30     1    55    16
 2020 200    91    78     9   203     2    30     1    55    16
 2020 201    92    79     9   203     2    30     1    55    16
 2020 202    93    80     9   203     2    30     1    55    16
 2020 203    94    81     9   203     2    30     1    55    16
 2020 204    95    82     9   203     2    30     1    55    16
 2020 205    96    83     9   203     2    30     1    55    16
 2020 206    97    84     9   203     2    30     1    55    16
 2020 207    98    85     9   203     2    30     1    55    16
 2020 208    99    86     9   203     2    30     1    55    16
 2020 209   100    87     9   203     2    30     1    55    16
 2020 210   101    88     9   203     2    30     1    55    16
 2020 211   102    89     9   203     2    30     1    55    16
 2020 212   103    90     9   203     2    30     1    55    16
 2020 213   104    91     9   203     2    30     1    55    16
 2020 214   105    92     9   203     2    30     1    55    16
 2020 215   106    93     9   203     2    30     1    55    16
 2020 216   107    94     9   203     2    30     1    55    16
 2020 217   108    95     9   203     2    30     1    55    16
 2020 218   109    96     9   203     2    30     1    55    16
 2020 219   110    97     9   203     2    30     1    55    16
 2020 220   111    98     9   203     2    30     1    55    16
 2020 221   112    99     9   203     2    30     1    55    16
 2020 222   113   100     9   203     2    30     1    55    16
 2020 223   114   101     9   203     2    30     1    55    16
 2020 224   115   102     9   203     2    30     1    55    16
 2020 225   116   103     9   203     2    30     1    55    16
 2020 226   117   104     9   203     2    30     1    55    16
 2020 227   118   105     9   203     2    30     1    55    16
 2020 228   119   106     9   203     2    30     1    55    16
 2020 229   120   107     9   203     2    30     1    55    16
 2020 230   121   108     9   203     2    30     1    55    16
 2020 231   122   109     9   203     2    30     1    55    16
 2020 232   123   110     9   203     2    30     1    55    16
 2020 233   124   111     9   203     2    30     1    55    16
 2020 234   125   112     9   203     2    30     1    55    16
 2020 235   126   113     9   203     2    30     1    55    16
 2020 236   127   114     9   203     2    30     1    55    16
 2020 237   128   115     9   203     2    30     1    55    16
 2020 238   129   116     9   203     2    30     1    55    16
 2020 239   130   117     9   203     2    30     1    55    16
 2020 240   131   118     9   203     2    30     1    55    16
 2020 241   132   119     9   203     2    30     1    55    16
 2020 242   133   120     9   203     2    30     1    55    16
 2020 243   134   121     9   203     2    30     1    55    16
 2020 244   135   122     9   203     2    30     1    55    16
 2020 245   136   123     9   203     2    30     1    55    16
 2020 246   137   124     9   203     2    30     1    55    16
 2020 247   138   125     9   203     2    30     1    55    16
 2020 248   139   126     9   203     2    30     1    55    16
 2020 249   140   127     9   203     2    30     1    55    16
 2020 250   141   128     9   203     2    30     1    55    16
 2020 251   142   129     9   203     2    30     1    55    16
 2020 252   143   130     9   203     2    30     1    55    16
 2020 253   144   131     9   203     2    30     1    55    16
 2020 254   145   132     9   203     2    30     1    55    16
 2020 255   146   133     9   203     2    30     1    55    16
 2020 256   147   134     9   203     2    30     1    55    16
 2020 257   148   135     9   203     2    30     1    55    16
 2020 258   149   136     9   203     2    30     1    55    16
 2020 259   150   137     9   203     2    30     1    55    16
 2020 260   151   138     9   203     2    30     1    55    16
 2020 261   152   139     9   203     2    30     1    55    16
 2020 262   153   140     9   203     2    30     1    55    16
 2020 263   154   141     9   203     2    30     1    55    16
 2020 264   155   142     9   203     2    30     1    55    16
 2020 265   156   143     9   203     2    30     1    55    16
 2020 266   157   144     9   203     2    30     1    55    16
 2020 267   158   145     9   203     2    30     1    55    16
 2020 268   159   146     9   203     2    30     1    55    16
