*N2O emissions output file

*DSSAT Cropping System Model Ver. 4.8.2.000 -release  MAY 26, 2025 18:07:50

*RUN   1        : farm_23                   MZCER048 UNLI2309    1
 MODEL          : MZCER048 - Maize
 EXPERIMENT     : UNLI2309 MZ PIO1366
 DATA PATH      :
 TREATMENT  1   : farm_23                   MZCER048
  
!              |------------------------------ Cumulative -----------------------------|------------------------------ Daily ----------------------------------|
!               N2Oemit  N2emit  NOemit   Denit  Nitrif   N2O-denit+nit      N2      NO N2Oemit  N2emit  NOemit   Denit  Nitrif   N2O-denit+nit      N2      NO   Denitrification (g[N]/ha) by soil depth (cm):                                   Nitrification (g[N]/ha) by soil depth (cm):                                     N2O flux (g[N]/ha) by soil depth (cm):                                          N2 flux (g[N]/ha) by soil depth (cm):                                           NO flux (g[N]/ha) by soil depth (cm):
!                 kg/ha   kg/ha   kg/ha   kg/ha   kg/ha   kg/ha   kg/ha   kg/ha   kg/ha    g/ha    g/ha    g/ha    g/ha    g/ha    g/ha    g/ha    g/ha    g/ha     0-5    5-15   15-23   23-31   31-46   46-61   61-91  91-106 106-122 122-183     0-5    5-15   15-23   23-31   31-46   46-61   61-91  91-106 106-122 122-183     0-5    5-15   15-23   23-31   31-46   46-61   61-91  91-106 106-122 122-183     0-5    5-15   15-23   23-31   31-46   46-61   61-91  91-106 106-122 122-183     0-5    5-15   15-23   23-31   31-46   46-61   61-91  91-106 106-122 122-183
@YEAR DOY   DAS   N2OEC    N2EC    NOEC    NDNC    NITC   N2ODC   N2ONC   N2FLC   NOFLC  N2OGED   N2GED   NOGED    NDND   NITRD   N2ODD   N2OND   N2FLD   NOFLD   NDN1D   NDN2D   NDN3D   NDN4D   NDN5D   NDN6D   NDN7D   NDN8D   NDN9D   NDN10   NIT1D   NIT2D   NIT3D   NIT4D   NIT5D   NIT6D   NIT7D   NIT8D   NIT9D   NIT10   N2O1D   N2O2D   N2O3D   N2O4D   N2O5D   N2O6D   N2O7D   N2O8D   N2O9D   N2O10   N2F1D   N2F2D   N2F3D   N2F4D   N2F5D   N2F6D   N2F7D   N2F8D   N2F9D   N2F10   NOF1D   NOF2D   NOF3D   NOF4D   NOF5D   NOF6D   NOF7D   NOF8D   NOF9D   NOF10
 2020 110     1    0.00    0.00    0.00    0.00     0.2   0.000   0.000   0.000   0.002     0.0     0.0     0.0     0.0     243    0.00    0.24    0.00    2.32     0.0     0.0     0.0     0.0     0.0     0.0     0.0     0.0     0.0     0.0      6.     12.      9.      9.     18.     17.     44.     22.     23.     42.     0.0     0.0     0.0     0.0     0.0     0.0     0.0     0.0     0.0     0.0     0.0     0.0     0.0     0.0     0.0     0.0     0.0     0.0     0.0     0.0     0.0     0.1     0.1     0.1     0.1     0.1     0.5     0.2     0.2     0.4
 2020 111     2    0.00    0.00    0.00    0.00     0.5   0.000   0.000   0.000   0.004     0.0     0.0     0.0     0.0     223    0.00    0.22    0.00    1.71     0.0     0.0     0.0     0.0     0.0     0.0     0.0     0.0     0.0     0.0      6.     12.      9.      9.     17.     16.     39.     19.     20.     37.     0.0     0.0     0.0     0.0     0.0     0.0     0.0     0.0     0.0     0.0     0.0     0.0     0.0     0.0     0.0     0.0     0.0     0.0     0.0     0.0     0.0     0.1     0.0     0.0     0.1     0.1     0.3     0.2     0.2     0.3
 2020 112     3    0.00    0.00    0.00    0.00     0.7   0.000   0.001   0.000   0.005     0.0     0.0     0.0     0.0     210    0.00    0.21    0.00    1.30     0.0     0.0     0.0     0.0     0.0     0.0     0.0     0.0     0.0     0.0      6.     12.      9.      9.     16.     16.     36.     18.     18.     34.     0.0     0.0     0.0     0.0     0.0     0.0     0.0     0.0     0.0     0.0     0.0     0.0     0.0     0.0     0.0     0.0     0.0     0.0     0.0     0.0     0.0     0.1     0.0     0.0     0.1     0.1     0.3     0.1     0.1     0.2
 2020 113     4    0.00    0.00    0.00    0.00     0.9   0.000   0.001   0.000   0.006     0.0     0.0     0.0     0.0     199    0.00    0.20    0.00    0.99     0.0     0.0     0.0     0.0     0.0     0.0     0.0     0.0     0.0     0.0      7.     13.     10.      9.     16.     15.     34.     16.     17.     31.     0.0     0.0     0.0     0.0     0.0     0.0     0.0     0.0     0.0     0.0     0.0     0.0     0.0     0.0     0.0     0.0     0.0     0.0     0.0     0.0     0.0     0.0     0.0     0.0     0.1     0.1     0.2     0.1     0.1     0.2
 2020 114     5    0.00    0.00    0.00    0.00     1.1   0.000   0.001   0.000   0.007     0.0     0.0     0.0     0.0     199    0.00    0.20    0.00    0.80     0.0     0.0     0.0     0.0     0.0     0.0     0.0     0.0     0.0     0.0      7.     14.     11.     10.     17.     16.     33.     16.     16.     30.     0.0     0.0     0.0     0.0     0.0     0.0     0.0     0.0     0.0     0.0     0.0     0.0     0.0     0.0     0.0     0.0     0.0     0.0     0.0     0.0     0.0     0.0     0.0     0.0     0.1     0.0     0.2     0.1     0.1     0.1
 2020 115     6    0.00    0.00    0.00    0.00     1.3   0.000   0.001   0.000   0.008     0.0     0.0     0.0     0.0     198    0.00    0.20    0.00    0.64     0.0     0.0     0.0     0.0     0.0     0.0     0.0     0.0     0.0     0.0      8.     16.     12.     11.     17.     16.     33.     15.     15.     28.     0.0     0.0     0.0     0.0     0.0     0.0     0.0     0.0     0.0     0.0     0.0     0.0     0.0     0.0     0.0     0.0     0.0     0.0     0.0     0.0     0.0     0.0     0.0     0.0     0.0     0.0     0.1     0.1     0.1     0.1
 2020 116     7    0.00    0.00    0.00    0.00     1.5   0.000   0.001   0.000   0.008     0.0     0.0     0.0     0.0     195    0.00    0.19    0.00    0.50     0.0     0.0     0.0     0.0     0.0     0.0     0.0     0.0     0.0     0.0      8.     17.     13.     12.     18.     17.     31.     14.     14.     26.     0.0     0.0     0.0     0.0     0.0     0.0     0.0     0.0     0.0     0.0     0.0     0.0     0.0     0.0     0.0     0.0     0.0     0.0     0.0     0.0     0.0     0.0     0.0     0.0     0.0     0.0     0.1     0.0     0.0     0.1
 2020 117     8    0.00    0.00    0.00    0.00     1.7   0.000   0.002   0.000   0.009     0.0     0.0     0.0     0.0     190    0.00    0.19    0.00    0.45     0.0     0.0     0.0     0.0     0.0     0.0     0.0     0.0     0.0     0.0     10.     18.     13.     12.     18.     16.     30.     13.     13.     23.     0.0     0.0     0.0     0.0     0.0     0.0     0.0     0.0     0.0     0.0     0.0     0.0     0.0     0.0     0.0     0.0     0.0     0.0     0.0     0.0     0.0     0.0     0.0     0.0     0.0     0.0     0.1     0.0     0.0     0.1
 2020 118     9    0.00    0.00    0.00    0.00     1.8   0.000   0.002   0.000   0.009     0.0     0.0     0.1     0.0     191    0.00    0.19    0.00    0.44     0.0     0.0     0.0     0.0     0.0     0.0     0.0     0.0     0.0     0.0     11.     19.     14.     13.     19.     17.     30.     12.     12.     22.     0.0     0.0     0.0     0.0     0.0     0.0     0.0     0.0     0.0     0.0     0.0     0.0     0.0     0.0     0.0     0.0     0.0     0.0     0.0     0.0     0.0     0.0     0.0     0.0     0.0     0.0     0.1     0.0     0.0     0.1
 2020 119    10    0.00    0.00    0.00    0.00     2.0   0.000   0.002   0.000   0.010     0.0     0.0     0.1     0.0     195    0.00    0.20    0.00    0.45     0.0     0.0     0.0     0.0     0.0     0.0     0.0     0.0     0.0     0.0     12.     21.     16.     15.     20.     18.     30.     12.     12.     21.     0.0     0.0     0.0     0.0     0.0     0.0     0.0     0.0     0.0     0.0     0.0     0.0     0.0     0.0     0.0     0.0     0.0     0.0     0.0     0.0     0.0     0.0     0.0     0.0     0.0     0.0     0.1     0.0     0.0     0.1
 2020 120    11    0.00    0.00    0.00    0.00     2.2   0.000   0.002   0.000   0.010     0.0     0.0     0.1     0.0     200    0.00    0.20    0.00    0.45     0.0     0.0     0.0     0.0     0.0     0.0     0.0     0.0     0.0     0.0     13.     23.     17.     16.     21.     19.     30.     11.     11.     20.     0.0     0.0     0.0     0.0     0.0     0.0     0.0     0.0     0.0     0.0     0.0     0.0     0.0     0.0     0.0     0.0     0.0     0.0     0.0     0.0     0.0     0.0     0.0     0.0     0.0     0.0     0.1     0.0     0.0     0.1
 2020 121    12    0.00    0.00    0.00    0.00     2.5   0.000   0.002   0.000   0.011     0.0     0.0     0.1     0.0     207    0.00    0.21    0.00    0.46     0.0     0.0     0.0     0.0     0.0     0.0     0.0     0.0     0.0     0.0     14.     25.     19.     17.     22.     20.     30.     11.     11.     19.     0.0     0.0     0.0     0.0     0.0     0.0     0.0     0.0     0.0     0.0     0.0     0.0     0.0     0.0     0.0     0.0     0.0     0.0     0.0     0.0     0.0     0.0     0.0     0.0     0.0     0.0     0.1     0.0     0.0     0.1
 2020 122    13    0.00    0.00    0.00    0.00     2.7   0.000   0.003   0.000   0.011     0.0     0.0     0.1     0.0     221    0.00    0.22    0.00    0.49     0.0     0.0     0.0     0.0     0.0     0.0     0.0     0.0     0.0     0.0     15.     28.     21.     19.     24.     22.     32.     11.     11.     19.     0.0     0.0     0.0     0.0     0.0     0.0     0.0     0.0     0.0     0.0     0.0     0.0     0.0     0.0     0.0     0.0     0.0     0.0     0.0     0.0     0.0     0.0     0.0     0.0     0.0     0.0     0.1     0.0     0.0     0.1
 2020 123    14    0.00    0.00    0.00    0.00     4.4   0.000   0.004   0.000   0.012     0.1     0.0     0.0     0.0    1764    0.00    1.76    0.00    0.86     0.0     0.0     0.0     0.0     0.0     0.0     0.0     0.0     0.0     0.0   1558.     20.     18.     20.     28.     25.     35.     11.     11.     19.     1.6     0.0     0.0     0.0     0.0     0.0     0.0     0.0     0.0     0.0     0.0     0.0     0.0     0.0     0.0     0.0     0.0     0.0     0.0     0.0     0.4     0.0     0.0     0.0     0.1     0.0     0.1     0.0     0.0     0.1
 2020 124    15    0.00    0.00    0.00    0.00     6.4   0.000   0.006   0.000   0.013     0.3     0.0     0.1     0.0    1968    0.00    1.97    0.00    1.32     0.0     0.0     0.0     0.0     0.0     0.0     0.0     0.0     0.0     0.0   1761.     26.     18.     19.     27.     25.     35.     11.     11.     18.     1.8     0.0     0.0     0.0     0.0     0.0     0.0     0.0     0.0     0.0     0.0     0.0     0.0     0.0     0.0     0.0     0.0     0.0     0.0     0.0     0.9     0.0     0.0     0.0     0.1     0.0     0.1     0.0     0.0     0.1
 2020 125    16    0.00    0.00    0.00    0.00     7.7   0.000   0.008   0.000   0.014     0.1     0.0     0.1     0.0    1291    0.00    1.29    0.00    0.66     0.0     0.0     0.0     0.0     0.0     0.0     0.0     0.0     0.0     0.0   1089.     25.     18.     18.     27.     25.     35.     10.     10.     18.     1.1     0.0     0.0     0.0     0.0     0.0     0.0     0.0     0.0     0.0     0.0     0.0     0.0     0.0     0.0     0.0     0.0     0.0     0.0     0.0     0.3     0.0     0.0     0.0     0.0     0.0     0.1     0.0     0.0     0.1
 2020 126    17    0.00    0.00    0.00    0.00     8.8   0.000   0.009   0.000   0.014     0.2     0.0     0.1     0.0    1106    0.00    1.11    0.00    0.51     0.0     0.0     0.0     0.0     0.0     0.0     0.0     0.0     0.0     0.0    936.     21.     16.     14.     17.     17.     34.     10.     10.     17.     0.9     0.0     0.0     0.0     0.0     0.0     0.0     0.0     0.0     0.0     0.0     0.0     0.0     0.0     0.0     0.0     0.0     0.0     0.0     0.0     0.3     0.0     0.0     0.0     0.0     0.0     0.1     0.0     0.0     0.0
 2020 127    18    0.00    0.00    0.00    0.02    10.2   0.004   0.010   0.019   0.018     0.7     0.5     0.4    23.6    1391    4.17    1.39   19.44    3.89     6.9     8.2     5.8     2.6     0.0     0.0     0.0     0.0     0.0     0.0   1192.     29.     22.     20.     24.     22.     33.      9.      9.     16.     2.8     1.5     1.0     0.2     0.0     0.0     0.0     0.0     0.0     0.0     5.3     6.8     4.9     2.4     0.0     0.0     0.0     0.0     0.0     0.0     1.8     1.0     0.7     0.2     0.0     0.0     0.1     0.0     0.0     0.0
 2020 128    19    0.00    0.00    0.00    0.03    11.4   0.006   0.011   0.027   0.021     1.1     1.0     0.7     8.9    1157    1.65    1.16    7.21    3.19     2.9     2.9     2.0     1.1     0.0     0.0     0.0     0.0     0.0     0.0    977.     28.     20.     19.     23.     21.     28.      8.      8.     13.     1.7     0.5     0.3     0.1     0.0     0.0     0.0     0.0     0.0     0.0     2.1     2.4     1.7     1.0     0.0     0.0     0.0     0.0     0.0     0.0     1.9     0.6     0.4     0.1     0.0     0.0     0.1     0.0     0.0     0.0
 2020 129    20    0.00    0.00    0.00    0.04    12.4   0.006   0.012   0.030   0.024     1.3     1.3     1.0     3.6    1071    0.65    1.07    2.95    2.58     1.0     1.1     0.8     0.4     0.2     0.0     0.0     0.0     0.0     0.0    894.     28.     21.     19.     23.     21.     27.      7.      7.     13.     1.2     0.2     0.1     0.1     0.0     0.0     0.0     0.0     0.0     0.0     0.7     0.9     0.7     0.4     0.2     0.0     0.0     0.0     0.0     0.0     1.7     0.3     0.2     0.1     0.0     0.0     0.1     0.0     0.0     0.0
 2020 130    21    0.00    0.00    0.00    0.09    13.0   0.015   0.013   0.073   0.027     0.4     0.6     0.3    51.7     577    8.78    0.58   42.96    3.20    10.4    18.3    14.7     6.5     1.1     0.6     0.2     0.0     0.0     0.0    438.     16.     12.     13.     20.     18.     24.      7.      7.     11.     2.3     3.3     2.7     0.8     0.1     0.0     0.0     0.0     0.0     0.0     8.5    15.0    12.0     5.7     1.0     0.5     0.2     0.0     0.0     0.0     0.7     1.0     0.8     0.4     0.1     0.0     0.1     0.0     0.0     0.0
 2020 131    22    0.01    0.01    0.00    0.11    13.7   0.018   0.014   0.088   0.030     1.2     2.2     0.8    18.9     727    3.00    0.73   15.91    2.89     3.6     6.5     5.2     2.6     0.5     0.2     0.1     0.0     0.0     0.0    579.     22.     16.     16.     20.     18.     23.      6.      6.     10.     1.2     1.1     0.9     0.4     0.1     0.0     0.0     0.0     0.0     0.0     2.9     5.5     4.4     2.3     0.5     0.2     0.1     0.0     0.0     0.0     0.9     0.8     0.6     0.3     0.1     0.0     0.1     0.0     0.0     0.0
 2020 132    23    0.01    0.01    0.01    0.11    14.4   0.019   0.014   0.094   0.032     1.7     3.3     1.2     6.6     665    1.00    0.66    5.58    2.16     0.8     2.4     1.9     1.0     0.2     0.1     0.1     0.0     0.0     0.0    530.     21.     16.     15.     18.     16.     20.      5.      5.      9.     0.7     0.4     0.3     0.1     0.0     0.0     0.0     0.0     0.0     0.0     0.7     2.0     1.6     0.9     0.2     0.1     0.1     0.0     0.0     0.0     0.9     0.4     0.4     0.2     0.1     0.0     0.1     0.0     0.0     0.0
 2020 133    24    0.01    0.01    0.01    0.16    14.7   0.026   0.015   0.131   0.035     0.4     0.9     0.3    42.8     358    6.38    0.36   36.46    2.42     5.9    13.2    12.3     8.5     1.8     0.7     0.2     0.1     0.1     0.0    256.     12.      9.     10.     14.     14.     18.      5.      5.      8.     1.0     2.0     2.2     1.3     0.1     0.0     0.0     0.0     0.0     0.0     5.1    11.2    10.2     7.2     1.7     0.6     0.2     0.1     0.1     0.0     0.3     0.6     0.7     0.5     0.1     0.1     0.1     0.0     0.0     0.0
 2020 134    25    0.01    0.01    0.01    0.17    15.2   0.028   0.015   0.143   0.037     1.2     3.0     0.8    14.2     410    1.99    0.41   12.23    1.84     2.0     4.4     4.1     3.0     0.8     0.0     0.0     0.0     0.0     0.0    314.     15.     11.     11.     13.     12.     15.      4.      4.      6.     0.6     0.6     0.6     0.4     0.1     0.0     0.0     0.0     0.0     0.0     1.8     3.8     3.4     2.5     0.7     0.0     0.0     0.0     0.0     0.0     0.4     0.4     0.5     0.4     0.1     0.0     0.0     0.0     0.0     0.0
 2020 135    26    0.01    0.02    0.01    0.18    15.6   0.028   0.016   0.147   0.038     1.8     4.7     1.2     5.4     434    0.73    0.43    4.62    1.45     0.6     1.7     1.5     1.2     0.3     0.0     0.0     0.0     0.0     0.0    340.     16.     12.     11.     13.     11.     13.      4.      4.      6.     0.4     0.2     0.2     0.2     0.0     0.0     0.0     0.0     0.0     0.0     0.6     1.5     1.3     1.0     0.3     0.0     0.0     0.0     0.0     0.0     0.5     0.3     0.3     0.2     0.1     0.0     0.0     0.0     0.0     0.0
 2020 136    27    0.01    0.02    0.01    0.18    16.1   0.029   0.016   0.149   0.039     2.0     5.6     1.4     2.0     487    0.26    0.49    1.69    1.23     0.0     0.7     0.6     0.5     0.1     0.0     0.0     0.0     0.0     0.0    391.     17.     13.     12.     13.     11.     13.      3.      3.      6.     0.4     0.1     0.1     0.1     0.0     0.0     0.0     0.0     0.0     0.0     0.0     0.6     0.5     0.4     0.1     0.0     0.0     0.0     0.0     0.0     0.7     0.2     0.2     0.1     0.0     0.0     0.0     0.0     0.0     0.0
 2020 137    28    0.01    0.02    0.01    0.21    16.4   0.033   0.016   0.181   0.041     0.4     1.2     0.3    36.9     301    4.72    0.30   32.19    1.77     0.0     8.9     9.8    11.2     7.0     0.0     0.0     0.0     0.0     0.0    220.     12.      9.      8.     11.     11.     13.      3.      3.      6.     0.2     0.9     1.3     1.7     0.8     0.0     0.0     0.0     0.0     0.0     0.0     8.0     8.5     9.5     6.3     0.0     0.0     0.0     0.0     0.0     0.1     0.3     0.4     0.5     0.4     0.0     0.0     0.0     0.0     0.0
 2020 138    29    0.01    0.03    0.01    0.25    16.7   0.038   0.017   0.214   0.043     0.4     1.2     0.3    37.4     340    4.56    0.34   32.83    1.77     0.0     8.1    10.0    11.8     7.6     0.0     0.0     0.0     0.0     0.0    245.     15.     11.     10.     13.     12.     15.      4.      4.      6.     0.2     0.8     1.3     1.7     0.9     0.0     0.0     0.0     0.0     0.0     0.0     7.3     8.7    10.0     6.8     0.0     0.0     0.0     0.0     0.0     0.1     0.3     0.4     0.5     0.4     0.0     0.0     0.0     0.0     0.0
 2020 139    30    0.01    0.03    0.01    0.27    17.2   0.040   0.017   0.228   0.044     1.2     3.6     0.8    15.9     497    1.68    0.50   14.20    1.73     0.0     3.0     3.6     4.3     3.0     1.9     0.0     0.0     0.0     0.0    370.     23.     17.     15.     18.     15.     18.      4.      4.      7.     0.4     0.3     0.4     0.6     0.3     0.2     0.0     0.0     0.0     0.0     0.0     2.8     3.2     3.7     2.7     1.8     0.0     0.0     0.0     0.0     0.2     0.2     0.3     0.4     0.3     0.2     0.0     0.0     0.0     0.0
 2020 140    31    0.01    0.03    0.01    0.31    17.6   0.043   0.018   0.263   0.046     0.4     1.3     0.3    38.7     351    3.90    0.35   34.77    1.88     0.0     6.9     8.4    10.8     6.8     4.1     1.2     0.6     0.0     0.0    234.     18.     13.     12.     17.     15.     19.      5.      5.      7.     0.2     0.5     0.9     1.4     0.8     0.4     0.1     0.0     0.0     0.0     0.0     6.4     7.5     9.4     6.0     3.7     1.1     0.6     0.0     0.0     0.1     0.2     0.3     0.4     0.5     0.3     0.1     0.0     0.0     0.0
 2020 141    32    0.02    0.04    0.01    0.32    18.0   0.045   0.018   0.277   0.048     1.4     4.5     0.9    15.4     480    1.32    0.48   14.09    1.62     1.1     2.5     2.9     3.7     2.5     1.6     0.5     0.3     0.2     0.1    333.     26.     19.     18.     20.     18.     21.      5.      5.      8.     0.4     0.2     0.3     0.4     0.3     0.2     0.0     0.0     0.0     0.0     1.0     2.3     2.6     3.3     2.2     1.5     0.5     0.2     0.2     0.1     0.3     0.1     0.2     0.3     0.3     0.2     0.1     0.0     0.0     0.0
 2020 142    33    0.02    0.04    0.01    0.33    18.6   0.045   0.019   0.282   0.050     2.1     7.4     1.5     5.8     564    0.48    0.56    5.33    1.58     0.0     1.0     1.1     1.4     1.0     0.7     0.2     0.1     0.1     0.1    393.     32.     23.     21.     23.     20.     24.      6.      5.      9.     0.4     0.1     0.1     0.2     0.1     0.1     0.0     0.0     0.0     0.0     0.0     0.9     1.0     1.3     0.9     0.6     0.2     0.1     0.1     0.1     0.7     0.1     0.1     0.2     0.2     0.1     0.1     0.0     0.0     0.0
 2020 143    34    0.02    0.05    0.01    0.33    19.1   0.046   0.019   0.287   0.051     2.1     7.7     1.5     4.7     511    0.39    0.51    4.33    1.44     0.0     0.4     0.8     1.2     0.9     0.7     0.3     0.2     0.1     0.1    332.     33.     24.     22.     24.     21.     25.      6.      6.      9.     0.3     0.1     0.1     0.1     0.1     0.1     0.0     0.0     0.0     0.0     0.0     0.4     0.7     1.0     0.8     0.7     0.3     0.1     0.1     0.1     0.6     0.1     0.1     0.2     0.2     0.1     0.1     0.0     0.0     0.0
 2020 144    35    0.02    0.05    0.01    0.36    19.5   0.048   0.019   0.312   0.053     0.4     1.5     0.3    27.8     327    2.36    0.33   25.44    1.60     0.0     6.6     7.5     6.9     3.3     2.1     0.7     0.3     0.2     0.1    159.     23.     17.     19.     25.     22.     29.      7.      7.     10.     0.2     0.4     0.7     0.8     0.3     0.2     0.1     0.0     0.0     0.0     0.0     6.2     6.9     6.1     2.9     1.9     0.6     0.3     0.2     0.1     0.0     0.1     0.2     0.3     0.3     0.2     0.2     0.0     0.0     0.0
 2020 145    36    0.02    0.06    0.02    0.39    19.9   0.050   0.020   0.337   0.054     1.1     4.1     0.7    27.0     419    2.29    0.42   24.72    1.86     0.0     3.4     5.7     7.3     4.5     3.4     1.2     0.6     0.4     0.2    221.     34.     22.     21.     27.     24.     33.      8.      7.     12.     0.2     0.2     0.5     0.8     0.5     0.3     0.1     0.0     0.0     0.0     0.0     3.2     5.3     6.6     4.1     3.1     1.1     0.6     0.3     0.2     0.1     0.1     0.2     0.3     0.4     0.3     0.2     0.1     0.0     0.0
 2020 146    37    0.02    0.06    0.02    0.40    20.3   0.051   0.020   0.346   0.056     1.6     6.6     1.1    10.1     456    0.79    0.46    9.29    1.46     0.0     1.3     2.1     2.6     1.7     1.3     0.5     0.2     0.2     0.1    225.     41.     30.     27.     31.     27.     35.      8.      8.     13.     0.2     0.1     0.2     0.3     0.2     0.1     0.1     0.0     0.0     0.0     0.0     1.2     1.9     2.4     1.5     1.2     0.5     0.2     0.1     0.1     0.2     0.1     0.1     0.2     0.2     0.2     0.2     0.0     0.0     0.0
 2020 147    38    0.02    0.06    0.02    0.43    20.6   0.054   0.021   0.380   0.058     0.4     1.8     0.3    36.2     288    2.84    0.29   33.38    1.70     0.0     4.8     5.5     7.5     8.8     5.9     1.9     0.8     0.4     0.2    107.     25.     19.     18.     22.     22.     34.      8.      8.     13.     0.1     0.2     0.4     0.7     0.9     0.6     0.2     0.1     0.0     0.0     0.0     4.6     5.2     6.9     8.0     5.3     1.7     0.8     0.4     0.2     0.0     0.1     0.1     0.2     0.4     0.4     0.3     0.1     0.1     0.1
 2020 148    39    0.03    0.07    0.02    0.45    21.0   0.055   0.021   0.392   0.059     1.2     5.3     0.8    13.7     359    0.92    0.36   12.77    1.30     0.9     1.7     1.9     2.5     3.0     2.1     0.7     0.3     0.2     0.1    143.     36.     27.     25.     28.     26.     34.      8.      8.     13.     0.2     0.1     0.1     0.2     0.3     0.2     0.1     0.0     0.0     0.0     0.9     1.7     1.8     2.3     2.8     1.9     0.7     0.3     0.2     0.1     0.1     0.1     0.1     0.1     0.2     0.2     0.2     0.1     0.0     0.0
 2020 149    40    0.03    0.08    0.02    0.45    21.3   0.055   0.021   0.397   0.060     1.7     8.0     1.2     5.4     374    0.34    0.37    5.06    1.04     0.4     0.7     0.7     0.9     1.1     0.8     0.3     0.1     0.1     0.1    142.     40.     30.     28.     31.     27.     35.      9.      8.     13.     0.2     0.1     0.1     0.1     0.1     0.1     0.1     0.0     0.0     0.0     0.4     0.6     0.7     0.9     1.0     0.7     0.3     0.1     0.1     0.1     0.2     0.1     0.1     0.1     0.2     0.1     0.1     0.0     0.0     0.0
 2020 150    41    0.03    0.09    0.02    0.46    21.7   0.055   0.022   0.400   0.061     2.1    10.1     1.4     2.4     384    0.15    0.38    2.27    0.97     0.0     0.3     0.3     0.4     0.4     0.3     0.3     0.1     0.1     0.1    144.     41.     31.     29.     32.     28.     36.      9.      8.     14.     0.1     0.1     0.0     0.1     0.1     0.1     0.1     0.0     0.0     0.0     0.0     0.2     0.3     0.3     0.4     0.3     0.3     0.1     0.1     0.1     0.2     0.1     0.1     0.1     0.1     0.1     0.1     0.0     0.0     0.0
 2020 151    42    0.03    0.10    0.02    0.46    22.1   0.055   0.022   0.401   0.062     2.1    10.4     1.4     1.6     373    0.10    0.37    1.47    0.91     0.0     0.0     0.1     0.2     0.2     0.3     0.3     0.1     0.1     0.1    126.     43.     32.     30.     32.     29.     37.      9.      9.     14.     0.1     0.0     0.0     0.0     0.0     0.1     0.1     0.0     0.0     0.0     0.0     0.0     0.1     0.1     0.2     0.3     0.3     0.1     0.1     0.1     0.2     0.1     0.1     0.1     0.1     0.1     0.2     0.0     0.0     0.0
 2020 152    43    0.03    0.11    0.02    0.46    22.5   0.056   0.023   0.403   0.063     2.0    10.6     1.4     1.6     399    0.10    0.40    1.47    0.97     0.0     0.0     0.1     0.2     0.2     0.3     0.3     0.2     0.1     0.1    119.     52.     36.     34.     36.     32.     41.     10.     10.     16.     0.1     0.1     0.0     0.0     0.1     0.1     0.1     0.0     0.0     0.0     0.0     0.0     0.1     0.1     0.2     0.3     0.3     0.1     0.1     0.1     0.2     0.1     0.1     0.1     0.1     0.1     0.2     0.0     0.0     0.1
 2020 153    44    0.04    0.12    0.02    0.46    22.9   0.056   0.023   0.404   0.064     2.0    10.8     1.4     1.6     429    0.11    0.43    1.48    1.04     0.0     0.0     0.0     0.1     0.2     0.4     0.3     0.2     0.1     0.1    111.     57.     44.     38.     41.     36.     47.     11.     11.     18.     0.1     0.1     0.0     0.0     0.1     0.1     0.1     0.0     0.0     0.0     0.0     0.0     0.0     0.1     0.2     0.3     0.3     0.2     0.1     0.1     0.2     0.1     0.1     0.1     0.1     0.1     0.2     0.1     0.0     0.1
 2020 154    45    0.04    0.13    0.03    0.46    23.4   0.056   0.023   0.406   0.065     2.0    10.9     1.4     1.6     471    0.11    0.47    1.51    1.14     0.0     0.0     0.0     0.1     0.2     0.4     0.4     0.2     0.1     0.1    105.     64.     49.     44.     48.     42.     55.     13.     13.     21.     0.1     0.1     0.0     0.0     0.1     0.1     0.1     0.0     0.0     0.0     0.0     0.0     0.0     0.1     0.2     0.4     0.4     0.2     0.1     0.1     0.2     0.1     0.1     0.1     0.1     0.1     0.2     0.1     0.0     0.1
 2020 155    46    0.04    0.14    0.03    0.46    23.9   0.056   0.024   0.407   0.066     1.9    10.9     1.4     1.6     507    0.11    0.51    1.53    1.22     0.0     0.0     0.0     0.0     0.2     0.4     0.4     0.2     0.1     0.1     94.     70.     54.     52.     54.     48.     62.     15.     15.     24.     0.1     0.1     0.1     0.1     0.1     0.1     0.1     0.0     0.0     0.0     0.0     0.0     0.0     0.0     0.2     0.4     0.4     0.2     0.1     0.1     0.2     0.1     0.1     0.1     0.1     0.1     0.2     0.1     0.1     0.1
 2020 156    47    0.04    0.15    0.03    0.46    24.4   0.056   0.024   0.409   0.067     1.9    10.9     1.4     1.7     509    0.11    0.51    1.55    1.24     0.0     0.0     0.0     0.0     0.2     0.5     0.4     0.2     0.1     0.1     71.     72.     55.     54.     57.     51.     67.     17.     16.     26.     0.1     0.1     0.1     0.1     0.1     0.1     0.1     0.0     0.0     0.0     0.0     0.0     0.0     0.0     0.2     0.4     0.4     0.2     0.1     0.1     0.1     0.1     0.1     0.1     0.1     0.2     0.3     0.1     0.1     0.1
 2020 157    48    0.04    0.16    0.03    0.47    24.9   0.056   0.025   0.410   0.069     1.9    10.8     1.4     1.6     516    0.11    0.52    1.53    1.26     0.0     0.0     0.0     0.0     0.1     0.5     0.4     0.2     0.1     0.1     54.     74.     57.     56.     60.     55.     72.     18.     17.     28.     0.1     0.1     0.1     0.1     0.1     0.1     0.1     0.0     0.0     0.0     0.0     0.0     0.0     0.0     0.1     0.4     0.4     0.2     0.1     0.1     0.1     0.1     0.1     0.1     0.1     0.2     0.3     0.1     0.1     0.1
 2020 158    49    0.04    0.17    0.03    0.47    25.5   0.056   0.025   0.412   0.070     1.8    10.7     1.4     1.5     515    0.10    0.52    1.43    1.26     0.0     0.0     0.0     0.0     0.0     0.5     0.4     0.2     0.1     0.1     40.     75.     58.     56.     62.     57.     75.     19.     18.     30.     0.0     0.1     0.1     0.1     0.1     0.1     0.1     0.0     0.0     0.0     0.0     0.0     0.0     0.0     0.0     0.4     0.4     0.2     0.1     0.1     0.1     0.1     0.1     0.1     0.1     0.2     0.3     0.1     0.1     0.1