*GROWTH ASPECTS OUTPUT FILE

*DSSAT Cropping System Model Ver. 4.8.2.000 -release  MAY 26, 2025 18:07:50

*RUN   1        : farm_23                   MZCER048 UNLI2309    1
 MODEL          : MZCER048 - Maize
 EXPERIMENT     : UNLI2309 MZ PIO1366
 DATA PATH      :
 TREATMENT  1   : farm_23                   MZCER048
  
!                                                                                                                                                                                                                                      Root Dens. (cm/cm3) by soil depth (cm):
!                                                                                                                                                                                                                                      0-5    5-15   15-23   23-31   31-46   46-61   61-91  91-106 106-122 122-183
@YEAR DOY   DAS   DAP   L#SD   GSTD   LAID   LWAD   SWAD   GWAD   RWAD   VWAD   CWAD   G#AD   GWGD   HIAD   PWAD   P#AD   WSPD   WSGD   NSTD   EWSD  PST1A  PST2A   KSTD   LN%D   SH%D   HIPD   PWDD   PWTD     SLAD   CHTD   CWID   RDPD    RL1D    RL2D    RL3D    RL4D    RL5D    RL6D    RL7D    RL8D    RL9D   RL10D   CDAD   LDAD   SDAD   SNW0C   SNW1C  DTTD
 2020 122    13     0    0.0      0   0.00      0      0      0      0      0      0      0    0.0  0.000      0      0  0.000  0.000  0.000  0.000  0.000  0.000  0.000   0.00   0.00   0.00      0      0      0.0   0.00   0.00   0.05    0.00    0.00    0.00    0.00    0.00    0.00    0.00    0.00    0.00    0.00      0      0      0       0       0 14.76
 2020 123    14     1    0.0      0   0.00      0      0      0      0      0      0      0    0.0  0.000      0      0  0.000  0.000  0.000  0.000  0.000  0.000  0.000   0.00   0.00   0.00      0      0      0.0   0.00   0.00   0.06    0.00    0.00    0.00    0.00    0.00    0.00    0.00    0.00    0.00    0.00      0      0      0       0       0  6.16
 2020 124    15     2    0.0      0   0.00      0      0      0      0      0      0      0    0.0  0.000      0      0  0.000  0.000  0.000  0.000  0.000  0.000  0.000   0.00   0.00   0.00      0      0      0.0   0.00   0.00   0.07    0.00    0.00    0.00    0.00    0.00    0.00    0.00    0.00    0.00    0.00      0      0      0       0       0  7.47
 2020 125    16     3    0.0      0   0.00      0      0      0      0      0      0      0    0.0  0.000      0      0  0.000  0.000  0.000  0.000  0.000  0.000  0.000   0.00   0.00   0.00      0      0      0.0   0.00   0.00   0.07    0.00    0.00    0.00    0.00    0.00    0.00    0.00    0.00    0.00    0.00      0      0      0       0       0  2.44
 2020 126    17     4    0.0      0   0.00      0      0      0      0      0      0      0    0.0  0.000      0      0  0.000  0.000  0.000  0.000  0.000  0.000  0.000   0.00   0.00   0.00      0      0      0.0   0.00   0.00   0.08    0.00    0.00    0.00    0.00    0.00    0.00    0.00    0.00    0.00    0.00      0      0      0       0       0  5.33
 2020 127    18     5    0.0      0   0.00      0      0      0      0      0      0      0    0.0  0.000      0      0  0.000  0.000  0.000  0.000  0.000  0.000  0.000   0.00   0.00   0.00      0      0      0.0   0.00   0.00   0.09    0.00    0.00    0.00    0.00    0.00    0.00    0.00    0.00    0.00    0.00      0      0      0       0       0  3.26
 2020 128    19     6    0.0      0   0.00      0      0      0      0      0      0      0    0.0  0.000      0      0  0.000  0.000  0.000  0.000  0.000  0.000  0.000   0.00   0.00   0.00      0      0      0.0   0.00   0.00   0.10    0.00    0.00    0.00    0.00    0.00    0.00    0.00    0.00    0.00    0.00      0      0      0       0       0  6.64
 2020 129    20     7    0.0      0   0.00      0      0      0      0      0      0      0    0.0  0.000      0      0  0.000  0.000  0.000  0.000  0.000  0.000  0.000   0.00   0.00   0.00      0      0      0.0   0.00   0.00   0.10    0.00    0.00    0.00    0.00    0.00    0.00    0.00    0.00    0.00    0.00      0      0      0       0       0  2.95
 2020 130    21     8    0.0      0   0.00      0      0      0      0      0      0      0    0.0  0.000      0      0  0.000  0.000  0.000  0.000  0.000  0.000  0.000   0.00   0.00   0.00      0      0      0.0   0.00   0.00   0.10    0.00    0.00    0.00    0.00    0.00    0.00    0.00    0.00    0.00    0.00      0      0      0       0       0  2.13
 2020 131    22     9    0.0      0   0.00      0      0      0      0      0      0      0    0.0  0.000      0      0  0.000  0.000  0.000  0.000  0.000  0.000  0.000   0.00   0.00   0.00      0      0      0.0   0.00   0.00   0.11    0.00    0.00    0.00    0.00    0.00    0.00    0.00    0.00    0.00    0.00      0      0      0       0       0  1.13
 2020 132    23    10    0.0      0   0.00      0      0      0      0      0      0      0    0.0  0.000      0      0  0.000  0.000  0.000  0.000  0.000  0.000  0.000   0.00   0.00   0.00      0      0      0.0   0.00   0.00   0.11    0.00    0.00    0.00    0.00    0.00    0.00    0.00    0.00    0.00    0.00      0      0      0       0       0  0.00
 2020 133    24    11    0.0      0   0.00      0      0      0      0      0      0      0    0.0  0.000      0      0  0.000  0.000  0.000  0.000  0.000  0.000  0.000   0.00   0.00   0.00      0      0      0.0   0.00   0.00   0.11    0.00    0.00    0.00    0.00    0.00    0.00    0.00    0.00    0.00    0.00      0      0      0       0       0  0.00
 2020 134    25    12    0.0      0   0.00      0      0      0      0      0      0      0    0.0  0.000      0      0  0.000  0.000  0.000  0.000  0.000  0.000  0.000   0.00   0.00   0.00      0      0      0.0   0.00   0.00   0.11    0.00    0.00    0.00    0.00    0.00    0.00    0.00    0.00    0.00    0.00      0      0      0       0       0  2.57
 2020 135    26    13    0.0      0   0.00      0      0      0      0      0      0      0    0.0  0.000      0      0  0.000  0.000  0.000  0.000  0.000  0.000  0.000   0.00   0.00   0.00      0      0      0.0   0.00   0.00   0.12    0.00    0.00    0.00    0.00    0.00    0.00    0.00    0.00    0.00    0.00      0      0      0       0       0  8.38
 2020 136    27    14    0.0      0   0.00      0      0      0      0      0      0      0    0.0  0.000      0      0  0.000  0.000  0.000  0.000  0.000  0.000  0.000   0.00   0.00   0.00      0      0      0.0   0.00   0.00   0.13    0.00    0.00    0.00    0.00    0.00    0.00    0.00    0.00    0.00    0.00      0      0      0       0       0  6.45
 2020 137    28    15    0.0      0   0.00      0      0      0      0      0      0      0    0.0  0.000      0      0  0.000  0.000  0.000  0.000  0.000  0.000  0.000   0.00   0.00   0.00      0      0      0.0   0.00   0.00   0.14    0.00    0.00    0.00    0.00    0.00    0.00    0.00    0.00    0.00    0.00      0      0      0       0       0  7.59
 2020 138    29    16    0.0      0   0.00      0      0      0      0      0      0      0    0.0  0.000      0      0  0.000  0.000  0.000  0.000  0.000  0.000  0.000   0.00   0.00   0.00      0      0      0.0   0.00   0.00   0.15    0.00    0.00    0.00    0.00    0.00    0.00    0.00    0.00    0.00    0.00      0      0      0       0       0  4.43
 2020 139    30    17    0.0      0   0.00      0      0      0      0      0      0      0    0.0  0.000      0      0  0.000  0.000  0.000  0.000  0.000  0.000  0.000   0.00   0.00   0.00      0      0      0.0   0.00   0.00   0.16    0.00    0.00    0.00    0.00    0.00    0.00    0.00    0.00    0.00    0.00      0      0      0       0       0  5.76
 2020 140    31    18    1.0      1   0.00     16     16      0     16     32     32      0    0.0  0.000      0      0  0.000  0.000  0.014  0.000  0.000  0.000  0.000   4.40   0.00   0.00      0      0     15.3   0.00   0.00   0.17    0.32    0.16    0.02    0.00    0.00    0.00    0.00    0.00    0.00    0.00      0      0      0       0       0  9.56
 2020 141    32    19    2.0      1   0.00     16     16      0     17     32     32      0    0.0  0.000      0      0  0.000  0.000  0.016  0.000  0.000  0.000  0.000   4.40   0.00   0.00      0      0     29.4   0.00   0.00   0.18    0.33    0.16    0.02    0.00    0.00    0.00    0.00    0.00    0.00    0.00      0      0      0       0       0 11.36
 2020 142    33    20    2.0      1   0.01     16     16      0     17     32     32      0    0.0  0.000      0      0  0.000  0.000  0.014  0.000  0.000  0.000  0.000   4.40   0.00   0.00      0      0     38.8   0.00   0.00   0.19    0.33    0.16    0.02    0.00    0.00    0.00    0.00    0.00    0.00    0.00      0      0      0       0       0  7.20
 2020 143    34    21    2.0      1   0.01     16     16      0     17     32     32      0    0.0  0.000      0      0  0.000  0.000  0.011  0.000  0.000  0.000  0.000   4.40   0.00   0.00      0      0     52.1   0.00   0.00   0.20    0.34    0.17    0.03    0.00    0.00    0.00    0.00    0.00    0.00    0.00      0      0      0       0       0  9.32
 2020 144    35    22    2.0      1   0.01     16     16      0     18     32     32      0    0.0  0.000      0      0  0.000  0.000  0.007  0.000  0.000  0.000  0.000   4.40   0.00   0.00      0      0     67.5   0.00   0.00   0.21    0.36    0.17    0.03    0.00    0.00    0.00    0.00    0.00    0.00    0.00      0      0      0       0       0  9.91
 2020 145    36    23    3.0      1   0.01     16     16      0     19     32     32      0    0.0  0.000      0      0  0.000  0.000  0.004  0.000  0.000  0.000  0.000   4.40   0.00   0.00      0      0     81.6   0.01   0.00   0.22    0.38    0.17    0.04    0.00    0.00    0.00    0.00    0.00    0.00    0.00      0      0      0       0       0  8.68
 2020 146    37    24    3.0      1   0.01     16     16      0     20     32     32      0    0.0  0.000      0      0  0.000  0.000  0.003  0.000  0.000  0.000  0.000   4.40   0.00   0.00      0      0     88.9   0.01   0.00   0.22    0.39    0.18    0.05    0.00    0.00    0.00    0.00    0.00    0.00    0.00      0      0      0       0       0  4.56
 2020 147    38    25    3.0      1   0.02     16     16      0     23     32     32      0    0.0  0.000      0      0  0.000  0.000  0.000  0.000  0.000  0.000  0.000   4.40   0.00   0.00      0      0     97.6   0.01   0.00   0.23    0.43    0.19    0.07    0.00    0.00    0.00    0.00    0.00    0.00    0.00      0      0      0       0       0  8.31
 2020 148    39    26    3.0      1   0.02     16     16      0     25     32     32      0    0.0  0.000      0      0  0.000  0.000  0.000  0.000  0.000  0.000  0.000   4.40   0.00   0.00      0      0    118.7   0.01   0.00   0.24    0.47    0.20    0.09    0.00    0.00    0.00    0.00    0.00    0.00    0.00      0      0      0       0       0 11.28
 2020 149    40    27    3.0      1   0.02     16     16      0     28     32     32      0    0.0  0.000      0      0  0.000  0.000  0.000  0.000  0.000  0.000  0.000   4.40   0.00   0.00      0      0    139.8   0.01   0.00   0.25    0.52    0.21    0.11    0.01    0.00    0.00    0.00    0.00    0.00    0.00      0      0      0       0       0 10.76
 2020 150    41    28    4.0      1   0.04     16     16      0     32     32     32      0    0.0  0.000      0      0  0.000  0.000  0.000  0.000  0.000  0.000  0.000   4.40   0.00   0.00      0      0    216.7   0.01   0.00   0.26    0.57    0.22    0.14    0.02    0.00    0.00    0.00    0.00    0.00    0.00      0      0      0       0       0 11.70
 2020 151    42    29    4.0      1   0.05     16     16      0     37     32     32      0    0.0  0.000      0      0  0.000  0.000  0.000  0.000  0.000  0.000  0.000   4.27   0.00   0.00      0      0    311.5   0.02   0.00   0.27    0.64    0.24    0.17    0.05    0.00    0.00    0.00    0.00    0.00    0.00      0      0      0       0       0 12.85
 2020 152    43    30    4.0      1   0.07     22     16      0     42     39     39      0    0.0  0.000      0      0  0.000  0.000  0.000  0.000  0.000  0.000  0.000   3.54   0.00   0.00      0      0    320.1   0.03   0.00   0.29    0.69    0.25    0.20    0.08    0.00    0.00    0.00    0.00    0.00    0.00      0      0      0       0       0 15.72
 2020 153    44    31    5.0      1   0.10     35     16      0     46     52     52      0    0.0  0.000      0      0  0.000  0.000  0.000  0.000  0.000  0.000  0.000   3.12   0.00   0.00      0      0    292.3   0.04   0.00   0.31    0.73    0.26    0.22    0.12    0.00    0.00    0.00    0.00    0.00    0.00      0      0      0       0       1 20.40
 2020 154    45    32    5.0      1   0.14     50     16      0     53     66     66      0    0.0  0.000      0      0  0.000  0.000  0.000  0.000  0.000  0.000  0.000   3.22   0.00   0.00      0      0    272.6   0.06   0.00   0.33    0.80    0.28    0.26    0.17    0.01    0.00    0.00    0.00    0.00    0.00      0      0      0       0       1 18.70
 2020 155    46    33    6.0      1   0.17     64     16      0     66     80     80      0    0.0  0.000      0      0  0.000  0.000  0.000  0.000  0.000  0.000  0.000   3.37   0.00   0.00      0      0    259.2   0.07   0.00   0.34    0.92    0.31    0.31    0.27    0.04    0.00    0.00    0.00    0.00    0.00      0      0      0       0       1 15.58
 2020 156    47    34    6.0      2   0.21     79     16      0     83     95     95      0    0.0  0.000      0      0  0.000  0.000  0.000  0.000  0.000  0.000  0.000   3.40   0.00   0.00      0      0    265.2   0.09   0.00   0.36    1.05    0.35    0.38    0.39    0.09    0.00    0.00    0.00    0.00    0.00      0      0      0       0       1 17.87
 2020 157    48    35    6.0      2   0.26    102     16      0    105    118    118      0    0.0  0.000      0      0  0.000  0.000  0.003  0.000  0.000  0.000  0.000   3.25   0.00   0.00      0      0    251.3   0.11   0.00   0.40    1.20    0.38    0.45    0.52    0.21    0.00    0.00    0.00    0.00    0.00      0      0      0       0       2 17.91
 2020 158    49    36    7.0      2   0.32    135     16      0    119    152    152      0    0.0  0.000      0      0  0.000  0.000  0.000  0.000  0.000  0.000  0.000   3.13   0.00   0.00      0      0    237.0   0.14   0.00   0.44    1.26    0.40    0.48    0.58    0.30    0.00    0.00    0.00    0.00    0.00      0      0      0       0       2 21.14
 2020 159    50    37    7.0      2   0.40    178     16      0    145    194    194      0    0.0  0.000      0      0  0.000  0.000  0.000  0.000  0.000  0.000  0.000   3.11   0.00   0.00      0      0    224.1   0.17   0.00   0.49    1.37    0.41    0.53    0.68    0.52    0.00    0.00    0.00    0.00    0.00      0      0      0       0       3 22.28
 2020 160    51    38    8.0      2   0.47    217     16      0    179    233    233      0    0.0  0.000      0      0  0.000  0.000  0.000  0.000  0.000  0.000  0.000   4.04   0.00   0.00      0      0    215.0   0.20   0.00   0.52    1.46    0.43    0.56    0.77    0.70    0.15    0.00    0.00    0.00    0.00      0      0      0       0       4 18.04
 2020 161    52    39    8.0      2   0.49    229     16      0    180    246    246      0    0.0  0.000      0      0  0.000  0.000  0.000  0.000  0.000  0.000  0.000   3.83   0.00   0.00      0      0    212.4   0.21   0.00   0.53    1.46    0.42    0.56    0.76    0.70    0.18    0.00    0.00    0.00    0.00      0      0      0       0       4  6.69
 2020 162    53    40    8.0      3   0.53    256     16      0    242    272    272      0    0.0  0.000      0      0  0.000  0.000  0.000  0.000  0.000  0.000  0.000   3.89   0.00   0.00      0      0    206.7   0.22   0.00   0.56    1.49    0.46    0.60    0.80    0.77    0.84    0.00    0.00    0.00    0.00      0      0      0       0       5 10.68
 2020 163    54    41    8.0      3   0.59    291     16      0    304    307    307      0    0.0  0.000      0      0  0.000  0.000  0.000  0.000  0.000  0.000  0.000   3.83   0.00   0.00      0      0    202.0   0.25   0.00   0.58    1.52    0.50    0.63    0.83    0.80    1.54    0.00    0.00    0.00    0.00      0      0      0       0       6 13.04
 2020 164    55    42    9.0      3   0.67    339     17      0    367    356    356      0    0.0  0.000      0      0  0.000  0.000  0.000  0.000  0.000  0.000  0.000   3.80   0.00   0.00      0      0    196.4   0.28   0.00   0.62    1.55    0.54    0.67    0.87    0.84    2.23    0.00    0.00    0.00    0.00      0      0      0       0       7 16.40
 2020 165    56    43    9.0      3   0.75    394     18      0    432    413    413      0    0.0  0.000      0      0  0.000  0.000  0.000  0.000  0.000  0.000  0.000   3.67   0.00   0.00      0      0    191.0   0.32   0.00   0.65    1.61    0.60    0.73    0.93    0.90    2.60    0.15    0.00    0.00    0.00      0      0      0       0       9 16.65
 2020 166    57    44    9.0      3   0.88    476     22      0    471    499    499      0    0.0  0.000      0      0  0.000  0.000  0.000  0.000  0.000  0.000  0.000   3.64   0.00   0.00      0      0    184.4   0.37   0.00   0.69    1.64    0.63    0.76    0.96    0.93    2.62    0.34    0.00    0.00    0.00      0      0      0       0      11 21.97
 2020 167    58    45   10.0      3   1.01    568     30      0    530    598    598      0    0.0  0.000      0      0  0.000  0.000  0.000  0.000  0.000  0.000  0.000   3.56   0.00   0.00      0      0    178.4   0.43   0.00   0.74    1.69    0.68    0.82    1.01    0.99    2.67    0.62    0.00    0.00    0.00      0      0      0       0      14 21.68
 2020 168    59    46   10.0      3   1.16    668     41      0    601    710    710      0    0.0  0.000      0      0  0.000  0.000  0.000  0.000  0.000  0.000  0.000   3.27   0.00   0.00      0      0    173.0   0.49   0.00   0.78    1.86    0.87    1.00    1.20    1.17    2.84    0.73    0.00    0.00    0.00      0      0      0       0      16 20.94
 2020 169    60    47   11.0      3   1.32    785     60      0    668    846    846      0    0.0  0.000      0      0  0.000  0.000  0.000  0.000  0.000  0.000  0.000   2.85   0.00   0.00      0      0    167.7   0.56   0.00   0.82    2.02    1.03    1.16    1.35    1.33    2.99    0.84    0.00    0.00    0.00      0      0      0       0      19 21.90
 2020 170    61    48   11.0      3   1.41    854     74      0    729    927    927      0    0.0  0.000      0      0  0.000  0.000  0.012  0.000  0.000  0.000  0.000   2.64   0.00   0.00      0      0    164.9   0.60   0.00   0.85    2.16    1.17    1.30    1.50    1.47    3.13    0.95    0.00    0.00    0.00      0      0      0       0      23 12.15
 2020 171    62    49   11.0      3   1.46    904     84      0    775    988    988      0    0.0  0.000      0      0  0.000  0.000  0.083  0.000  0.000  0.000  0.000   2.52   0.00   0.00      0      0    161.4   0.62   0.00   0.87    2.26    1.28    1.41    1.60    1.57    3.22    1.04    0.00    0.00    0.00      0      0      0       0      26 10.40
 2020 172    63    50   11.0      3   1.51    961     99      0    862   1060   1060      0    0.0  0.000      0      0  0.000  0.000  0.112  0.000  0.000  0.000  0.000   2.38   0.00   0.00      0      0    157.3   0.64   0.00   0.89    2.45    1.47    1.60    1.79    1.76    3.41    1.22    0.00    0.00    0.00      0      0      0       0      30 12.40
 2020 173    64    51   12.0      3   1.59   1041    123      0    915   1164   1164      0    0.0  0.000      0      0  0.000  0.000  0.128  0.000  0.000  0.000  0.000   2.19   0.00   0.00      0      0    152.7   0.67   0.00   0.92    2.56    1.58    1.71    1.90    1.88    3.51    1.34    0.00    0.00    0.00      0      0      0       0      34 15.30
 2020 174    65    52   12.0      3   1.63   1100    143      0   1004   1243   1243      0    0.0  0.000      0      0  0.000  0.000  0.147  0.000  0.000  0.000  0.000   2.07   0.00   0.00      0      0    148.6   0.69   0.00   0.93    2.74    1.77    1.90    2.09    2.06    3.69    1.53    0.04    0.00    0.00      0      0      0       0      39 11.95
 2020 175    66    53   12.0      3   1.66   1148    160      0   1101   1308   1308      0    0.0  0.000      0      0  0.000  0.000  0.173  0.000  0.000  0.000  0.000   1.99   0.00   0.00      0      0    144.4   0.70   0.00   0.94    2.93    1.97    2.10    2.29    2.26    3.88    1.73    0.11    0.00    0.00      0      0      0       0      44 10.60
 2020 176    67    54   13.0      3   1.70   1213    188      0   1194   1401   1401      0    0.0  0.000      0      0  0.000  0.000  0.187  0.000  0.000  0.000  0.000   1.88   0.00   0.00      0      0    140.0   0.72   0.00   0.95    3.11    2.16    2.29    2.47    2.45    4.00    1.92    0.19    0.00    0.00      0      0      0       0      50 15.45
 2020 177    68    55   13.0      3   1.75   1289    226      0   1249   1515   1515      0    0.0  0.000      0      0  0.000  0.000  0.195  0.000  0.000  0.000  0.000   1.77   0.00   0.00      0      0    135.7   0.74   0.00   0.96    3.22    2.27    2.40    2.58    2.56    4.00    2.03    0.25    0.00    0.00      0      0      0       0      56 18.37
 2020 178    69    56   13.0      3   1.78   1353    262      0   1333   1615   1615      0    0.0  0.000      0      0  0.000  0.000  0.221  0.000  0.000  0.000  0.000   1.68   0.00   0.00      0      0    131.5   0.75   0.00   0.97    3.38    2.43    2.56    2.75    2.72    4.00    2.20    0.36    0.00    0.00      0      0      0       0      62 16.35
 2020 179    70    57   14.0      3   1.95   1541    310      0   1339   1851   1851      0    0.0  0.000      0      0  0.000  0.000  0.263  0.000  0.000  0.000  0.000   1.49   0.00   0.00      0      0    126.6   0.83   0.00   0.98    3.39    2.44    2.57    2.76    2.73    4.00    2.21    0.37    0.00    0.00      0      0      0       0      68 17.05
 2020 180    71    58   14.0      3   2.01   1646    432      0   1355   2078   2078      0    0.0  0.000      0      0  0.000  0.000  0.288  0.000  0.000  0.000  0.000   1.36   0.00   0.00      0      0    122.4   0.85   0.00   1.00    3.41    2.48    2.60    2.79    2.76    4.00    2.24    0.40    0.00    0.00      0      0      0       0      75 18.30
 2020 181    72    59   14.0      3   2.03   1716    546      0   1374   2262   2265      0    0.0  0.000      3      0  0.000  0.000  0.366  0.000  0.000  0.000  0.000   1.27   0.00   0.00      0      3    118.2   0.86   0.00   1.01    3.44    2.51    2.64    2.82    2.80    4.00    2.28    0.42    0.00    0.00      0      0      0       0      82 20.62
 2020 182    73    60   15.0      3   1.99   1744    596      0   1430   2341   2347      0    0.0  0.000      7      0  0.000  0.000  0.426  0.000  0.000  0.000  0.000   1.25   0.00   0.00      0      7    114.1   0.86   0.00   1.02    3.55    2.62    2.75    2.93    2.91    4.00    2.39    0.49    0.00    0.00      0      0      0       0      89 11.00
 2020 183    74    61   15.0      3   1.95   1769    644      0   1495   2413   2425      0    0.0  0.000     11      0  0.000  0.000  0.461  0.000  0.000  0.000  0.000   1.23   0.00   0.00      0     11    110.1   0.86   0.00   1.03    3.68    2.75    2.88    3.06    3.04    4.00    2.52    0.56    0.00    0.00      0      0      0       0      96 11.81
 2020 184    75    62   15.0      3   1.91   1801    713      0   1511   2514   2530      0    0.0  0.000     16      0  0.000  0.000  0.463  0.000  0.000  0.000  0.000   1.20   0.00   0.01      0     16    106.2   0.86   0.00   1.04    3.70    2.79    2.91    3.09    3.07    4.00    2.56    0.58    0.00    0.00      0      0      0       0     103 16.65
 2020 185    76    63   16.0      3   1.88   1830    781      0   1555   2611   2635      0    0.0  0.000     24      0  0.000  0.000  0.461  0.000  0.000  0.000  0.000   1.17   0.00   0.01      0     24    102.5   0.86   0.00   1.05    3.79    2.88    3.00    3.18    3.16    4.00    2.65    0.61    0.00    0.00      0      0      0       0     111 17.10
 2020 186    77    64   16.0      3   1.84   1856    841      0   1601   2696   2732      0    0.0  0.000     35      0  0.000  0.000  0.467  0.000  0.000  0.000  0.000   1.14   0.00   0.01      0     35     99.0   0.86   0.00   1.06    3.88    2.97    3.10    3.28    3.25    4.00    2.75    0.64    0.00    0.00      0      0      0       0     119 16.40
 2020 187    78    65   16.0      3   1.80   1881    903      0   1628   2783   2831      0    0.0  0.000     48      0  0.000  0.000  0.471  0.000  0.000  0.000  0.000   1.12   0.00   0.02      0     48     95.6   0.86   0.00   1.07    3.93    3.03    3.15    3.33    3.31    4.00    2.80    0.64    0.01    0.00      0      0      0       0     127 17.30
 2020 188    79    66   17.0      3   1.76   1906    963      0   1663   2868   2936      0    0.0  0.000     68      0  0.000  0.000  0.471  0.000  0.000  0.000  0.000   1.10   0.00   0.02      0     68     92.3   0.86   0.00   1.09    4.00    3.10    3.22    3.40    3.38    4.00    2.88    0.65    0.03    0.00      0      0      0       0     135 18.60
 2020 189    80    67   17.0      3   1.72   1931   1020      0   1696   2951   3047      0    0.0  0.000     96      0  0.000  0.000  0.469  0.000  0.000  0.000  0.000   1.09   0.00   0.03      0     96     89.2   0.86   0.00   1.10    4.00    3.17    3.29    3.47    3.44    4.00    2.94    0.66    0.06    0.00      0      0      0       0     143 19.78
 2020 190    81    68   18.0      3   1.69   1955   1068      0   1724   3023   3155      0    0.0  0.000    132      0  0.000  0.000  0.466  0.000  0.000  0.000  0.000   1.07   0.00   0.04      0    132     86.3   0.86   0.00   1.11    4.00    3.22    3.34    3.52    3.49    4.00    3.00    0.66    0.09    0.00      0      0      0       0     152 19.30
 2020 191    82    69   18.0      3   1.64   1972   1085      0   1768   3057   3234      0    0.0  0.000    177      0  0.000  0.000  0.470  0.000  0.000  0.000  0.000   1.08   0.00   0.05      0    177     83.4   0.86   0.00   1.12    4.00    3.31    3.43    3.60    3.58    4.00    3.09    0.67    0.14    0.00      0      0      0       0     160 14.35
 2020 192    83    70   18.0      3   1.61   1992   1104      0   1799   3097   3326      0    0.0  0.000    229      0  0.000  0.000  0.471  0.000  0.000  0.000  0.000   1.08   0.00   0.07      0    229     80.7   0.86   0.00   1.13    4.00    3.37    3.49    3.66    3.64    4.00    3.15    0.67    0.19    0.00      0      0      0       0     169 16.70
 2020 193    84    71   18.0      3   1.57   2010   1106      0   1837   3116   3409      0    0.0  0.000    293      0  0.000  0.000  0.466  0.000  0.000  0.000  0.000   1.09   0.00   0.09      0    293     78.0   0.86   0.00   1.14    4.00    3.44    3.56    3.73    3.71    4.00    3.22    0.68    0.25    0.00      0      0      0       0     178 14.80
 2020 194    85    72   18.0      3   1.53   2029   1139      0   1866   3168   3494      0    0.0  0.000    326      0  0.000  0.000  0.461  0.000  0.000  0.000  0.000   1.09   0.00   0.09      0    326     75.5   0.86   0.00   1.15    4.00    3.49    3.61    3.78    3.76    4.00    3.28    0.69    0.29    0.00      0      0      0       0     187 15.05
 2020 195    86    73   18.0      3   1.50   2053   1147      0   1879   3200   3604      0    0.0  0.000    403      0  0.000  0.000  0.452  0.000  0.000  0.000  0.000   1.09   0.00   0.11      0    403     73.3   0.86   0.00   1.17    4.00    3.52    3.64    3.81    3.78    4.00    3.30    0.69    0.32    0.00      0      0      0       0     197 18.70
 2020 196    87    74   18.0      3   1.47   2069   1175      0   1887   3244   3675      0    0.0  0.000    431      0  0.000  0.000  0.450  0.000  0.000  0.000  0.000   1.09   0.00   0.12      0    431     71.0   0.86   0.00   1.18    4.00    3.53    3.65    3.82    3.80    4.00    3.32    0.69    0.33    0.00      0      0      0       0     206 12.25
 2020 197    88    75   18.0      4   1.42   2044   1290      0   1884   3334   3792      0    0.0  0.000    458      0  0.000  0.000  0.445  0.000  0.000  0.000  0.000   1.07   0.00   0.12      0    458     69.3   0.86   0.00   1.19    3.99    3.53    3.64    3.81    3.79    3.99    3.31    0.68    0.34    0.00      0      0      0       0     215 14.85
 2020 198    89    76   18.0      4   1.37   2016   1410      0   1881   3426   3916      0    0.0  0.000    490      0  0.000  0.000  0.440  0.000  0.000  0.000  0.000   1.06   0.00   0.13      0    490     67.8   0.86   0.00   1.20    3.98    3.52    3.64    3.81    3.78    3.98    3.31    0.68    0.34    0.00      0      0      0       0     225 17.30
 2020 199    90    77   18.0      4   1.32   1986   1535      0   1879   3522   4047      0    0.0  0.000    526      0  0.000  0.000  0.443  0.000  0.000  0.000  0.000   1.04   0.00   0.13      0    526     66.4   0.86   0.00   1.21    3.98    3.52    3.63    3.80    3.78    3.98    3.31    0.68    0.34    0.00      0      0      0       0     234 20.12
 2020 200    91    78   18.0      4   1.27   1955   1609      0   1873   3564   4112      0    0.0  0.000    548      0  0.000  0.000  0.447  0.000  0.000  0.000  0.000   1.04   0.00   0.13      0    548     65.1   0.86   0.00   1.22    3.96    3.51    3.62    3.79    3.77    3.96    3.30    0.68    0.34    0.00      0      0      0       0     244 16.45
 2020 201    92    79   18.0      4   1.23   1921   1709      0   1870   3630   4208      0    0.0  0.000    578      0  0.000  0.000  0.452  0.000  0.000  0.000  0.000   1.03   0.00   0.14      0    578     63.9   0.86   0.00   1.23    3.96    3.50    3.62    3.78    3.76    3.96    3.29    0.67    0.34    0.00      0      0      0       0     253 15.45