*Soil Inorganic Nitrogen daily output file

*DSSAT Cropping System Model Ver. 4.8.2.000 -release  MAY 26, 2025 18:07:50

*RUN   1        : farm_23                   MZCER048 UNLI2309    1
 MODEL          : MZCER048 - Maize
 EXPERIMENT     : UNLI2309 MZ PIO1366
 DATA PATH      :
 TREATMENT  1   : farm_23                   MZCER048
  
!                                                                                                                                      NO3 (ppm) at soil dep. (cm):                                                    NH4 (ppm) at soil dep. (cm):                                                    Total Inorganic N @dep(ppm):
!                                                                                                                                       0-5    5-15   15-23   23-31   31-46   46-61   61-91  91-106 106-122 122-183     0-5    5-15   15-23   23-31   31-46   46-61   61-91  91-106 106-122 122-183     0-5    5-15   15-23   23-31   31-46   46-61   61-91  91-106 106-122 122-183
@YEAR DOY   DAS  NAPC  NI#M    NIAD    NITD    NHTD   NURTD    NMNC    NITC    NDNC    NIMC    AMLC   NNMNC    NUCM    NLCC    TDNC    NI1D    NI2D    NI3D    NI4D    NI5D    NI6D    NI7D    NI8D    NI9D    NI10    NH1D    NH2D    NH3D    NH4D    NH5D    NH6D    NH7D    NH8D    NH9D    NH10    NT1D    NT2D    NT3D    NT4D    NT5D    NT6D    NT7D    NT8D    NT9D    NT10    
 2020 109     0     0     0    16.7    14.3     2.4     0.0    0.00    0.00    0.00    0.00    0.00    0.00    0.00    0.00    0.00    0.60     0.6     0.6    0.60    0.60    0.60    0.60    0.60    0.60    0.60    0.10    0.10    0.10    0.10    0.10    0.10    0.10    0.10    0.10    0.10    0.70    0.70    0.70    0.70    0.70    0.70    0.70    0.70    0.70    0.70
 2020 110     1     0     0    16.8    14.5     2.2     0.0    0.06    0.24    0.00    0.00    0.00    0.06    0.00    0.00    0.00    0.61     0.6     0.6    0.61    0.61    0.61    0.61    0.61    0.61    0.61    0.10    0.10    0.10    0.10    0.10    0.09    0.09    0.09    0.09    0.09    0.71    0.71    0.71    0.71    0.70    0.70    0.70    0.70    0.70    0.70
 2020 111     2     0     0    16.8    14.8     2.0     0.0    0.12    0.47    0.00    0.00    0.00    0.12    0.00    0.00    0.00    0.61     0.6     0.6    0.62    0.62    0.62    0.62    0.62    0.62    0.62    0.10    0.10    0.10    0.10    0.09    0.09    0.08    0.08    0.08    0.08    0.71    0.72    0.72    0.72    0.71    0.71    0.70    0.70    0.70    0.70
 2020 112     3     0     0    16.9    15.0     1.9     0.0    0.18    0.68    0.00    0.00    0.00    0.18    0.00    0.00    0.00    0.62     0.6     0.6    0.63    0.63    0.62    0.63    0.63    0.63    0.63    0.10    0.10    0.10    0.10    0.09    0.09    0.07    0.07    0.07    0.07    0.72    0.74    0.73    0.72    0.71    0.71    0.70    0.70    0.70    0.70
 2020 113     4     0     0    16.9    15.2     1.8     0.0    0.26    0.88    0.00    0.00    0.00    0.26    0.00    0.00    0.00    0.62     0.6     0.6    0.64    0.63    0.63    0.64    0.64    0.64    0.64    0.11    0.10    0.10    0.10    0.08    0.08    0.07    0.07    0.07    0.07    0.73    0.75    0.74    0.73    0.72    0.71    0.71    0.70    0.70    0.70
 2020 114     5     0     0    17.1    15.4     1.7     0.0    0.37    1.07    0.00    0.00    0.00    0.37    0.00    0.00    0.00    0.63     0.7     0.7    0.65    0.64    0.64    0.65    0.64    0.64    0.64    0.11    0.11    0.10    0.10    0.08    0.08    0.06    0.06    0.06    0.06    0.74    0.77    0.76    0.75    0.73    0.72    0.71    0.70    0.70    0.70
 2020 115     6     0     0    17.2    15.6     1.6     0.0    0.50    1.27    0.00    0.00    0.00    0.50    0.00    0.00    0.00    0.62     0.7     0.7    0.66    0.65    0.65    0.66    0.65    0.65    0.65    0.11    0.11    0.11    0.10    0.08    0.08    0.06    0.05    0.05    0.05    0.74    0.80    0.77    0.76    0.73    0.73    0.71    0.71    0.70    0.70
 2020 116     7     0     0    17.3    15.8     1.6     0.0    0.64    1.47    0.00    0.00    0.00    0.64    0.00    0.00    0.00    0.60     0.7     0.7    0.67    0.66    0.66    0.66    0.66    0.66    0.66    0.12    0.12    0.11    0.11    0.08    0.08    0.06    0.05    0.05    0.05    0.72    0.83    0.79    0.78    0.74    0.74    0.72    0.71    0.71    0.70
 2020 117     8     0     0    17.5    16.0     1.5     0.0    0.78    1.66    0.00    0.00    0.00    0.78    0.00    0.00    0.00    0.61     0.7     0.7    0.69    0.67    0.67    0.67    0.67    0.66    0.66    0.13    0.12    0.12    0.11    0.08    0.08    0.05    0.05    0.04    0.04    0.73    0.85    0.82    0.80    0.75    0.74    0.72    0.71    0.71    0.71
 2020 118     9     0     0    17.6    16.1     1.5     0.0    0.94    1.85    0.00    0.00    0.00    0.94    0.00    0.00    0.00    0.62     0.7     0.7    0.70    0.68    0.67    0.68    0.67    0.67    0.67    0.13    0.13    0.12    0.12    0.08    0.08    0.05    0.04    0.04    0.04    0.75    0.87    0.84    0.82    0.76    0.75    0.73    0.71    0.71    0.71
 2020 119    10     0     0    17.8    16.3     1.5     0.0    1.12    2.04    0.00    0.00    0.00    1.12    0.00    0.00    0.00    0.63     0.8     0.7    0.72    0.69    0.68    0.69    0.68    0.67    0.67    0.14    0.13    0.13    0.12    0.08    0.08    0.05    0.04    0.04    0.04    0.77    0.89    0.87    0.84    0.77    0.76    0.74    0.72    0.71    0.71
 2020 120    11     0     0    18.0    16.5     1.5     0.0    1.31    2.24    0.00    0.00    0.00    1.31    0.00    0.00    0.00    0.65     0.8     0.8    0.74    0.70    0.69    0.69    0.68    0.68    0.68    0.14    0.14    0.13    0.13    0.09    0.08    0.05    0.04    0.04    0.04    0.80    0.91    0.89    0.87    0.79    0.77    0.74    0.72    0.72    0.71
 2020 121    12     0     0    18.2    16.7     1.5     0.0    1.52    2.45    0.00    0.00    0.00    1.52    0.00    0.00    0.00    0.68     0.8     0.8    0.76    0.71    0.70    0.70    0.69    0.69    0.68    0.15    0.14    0.14    0.13    0.09    0.08    0.05    0.03    0.03    0.03    0.82    0.94    0.92    0.89    0.80    0.79    0.75    0.72    0.72    0.72
 2020 122    13    30     2    48.4    32.0    16.4     0.0    1.76    2.67    0.00    0.00    0.02    1.76    0.00    0.00    0.00   25.40     0.8     0.9    0.92    0.74    0.72    0.71    0.69    0.69    0.69   25.04    0.15    0.14    0.14    0.09    0.08    0.05    0.03    0.03    0.03   50.44    0.91    1.08    1.06    0.83    0.80    0.76    0.73    0.72    0.72
 2020 123    14    30     2    48.7    33.8    14.9     0.0    2.04    4.44    0.00    0.00    0.04    2.04    0.00    0.00    0.00   25.06     2.0     1.1    0.99    0.82    0.73    0.72    0.70    0.70    0.69   22.43    0.17    0.16    0.15    0.09    0.09    0.05    0.03    0.03    0.03   47.48    2.15    1.27    1.14    0.91    0.82    0.77    0.73    0.73    0.72
 2020 124    15    30     2    48.9    35.8    13.1     0.0    2.30    6.40    0.00    0.00    0.06    2.30    0.00    0.00    0.00   20.27     4.9     1.9    1.21    0.89    0.79    0.73    0.70    0.70    0.70   19.47    0.18    0.17    0.16    0.10    0.09    0.05    0.03    0.03    0.03   39.74    5.10    2.09    1.37    0.99    0.88    0.78    0.74    0.73    0.73
 2020 125    16    30     2    49.2    37.1    12.1     0.0    2.55    7.70    0.00    0.00    0.07    2.55    0.00    0.00    0.00    8.35     6.9     6.2    1.94    0.61    1.22    0.94    0.76    0.71    0.70   17.66    0.19    0.18    0.17    0.10    0.09    0.05    0.03    0.03    0.03   26.01    7.08    6.35    2.11    0.71    1.31    0.99    0.79    0.74    0.73
 2020 126    17    30     2    49.4    38.2    11.2     0.0    2.79    8.80    0.00    0.00    0.08    2.79    0.00    0.00    0.00    9.03     6.3     5.7    2.64    0.86    1.04    0.89    0.80    0.81    0.83   16.10    0.20    0.19    0.18    0.10    0.10    0.05    0.03    0.03    0.03   25.14    6.50    5.90    2.82    0.96    1.14    0.94    0.83    0.84    0.86
 2020 127    18    30     2    49.2    39.2    10.0     0.0    3.01   10.19    0.02    0.00    0.09    3.01    0.00    0.34    0.00   10.55     6.1     5.5    2.89    0.98    1.00    0.89    0.81    0.81    0.84   14.12    0.20    0.20    0.18    0.10    0.10    0.05    0.03    0.03    0.03   24.67    6.30    5.71    3.08    1.08    1.10    0.94    0.84    0.84    0.86
 2020 128    19    30     2    49.2    40.2     9.0     0.0    3.16   11.35    0.03    0.00    0.10    3.16    0.00    0.52    0.00   11.95     6.0     5.4    3.00    1.04    0.99    0.89    0.81    0.81    0.84   12.48    0.20    0.19    0.18    0.10    0.10    0.05    0.03    0.03    0.03   24.43    6.25    5.64    3.18    1.14    1.09    0.94    0.84    0.84    0.86
 2020 129    20    30     2    49.3    41.2     8.0     0.0    3.31   12.42    0.04    0.00    0.11    3.31    0.00    0.52    0.00    6.75     6.6     6.7    4.40    1.40    1.06    0.91    0.83    0.83    0.85   10.98    0.20    0.19    0.18    0.10    0.09    0.05    0.03    0.03    0.02   17.73    6.75    6.90    4.58    1.50    1.16    0.96    0.86    0.85    0.87
 2020 130    21    30     2    48.6    41.0     7.6     0.0    3.43   13.00    0.09    0.00    0.13    3.43    0.00    1.28    0.00    6.78     5.9     6.0    4.47    1.78    1.21    0.92    0.84    0.83    0.85   10.23    0.20    0.19    0.18    0.10    0.09    0.05    0.03    0.02    0.02   17.01    6.13    6.24    4.65    1.88    1.30    0.97    0.86    0.85    0.87
 2020 131    22    30     2    48.4    41.5     6.9     0.0    3.54   13.73    0.11    0.00    0.14    3.54    0.00    1.55    0.00    7.45     5.7     5.8    4.49    1.94    1.28    0.94    0.84    0.83    0.85    9.25    0.20    0.19    0.18    0.10    0.09    0.04    0.02    0.02    0.02   16.70    5.89    5.96    4.67    2.03    1.37    0.98    0.87    0.85    0.87
 2020 132    23    30     2    48.4    42.1     6.3     0.0    3.62   14.39    0.11    0.00    0.15    3.62    0.00    1.57    0.00    4.16     5.4     6.3    5.58    2.40    1.43    0.96    0.86    0.84    0.85    8.38    0.19    0.18    0.17    0.09    0.09    0.04    0.02    0.02    0.02   12.53    5.56    6.53    5.76    2.50    1.52    1.01    0.89    0.86    0.87
 2020 133    24    30     2    47.6    41.6     6.0     0.0    3.66   14.75    0.16    0.00    0.15    3.66    0.00    2.37    0.00    4.14     4.8     5.6    5.19    2.65    1.69    1.03    0.89    0.85    0.85    7.96    0.19    0.18    0.17    0.09    0.08    0.04    0.02    0.02    0.02   12.09    4.98    5.76    5.36    2.74    1.77    1.07    0.91    0.87    0.87
 2020 134    25    30     2    47.3    41.7     5.6     0.0    3.68   15.16    0.17    0.00    0.15    3.68    0.00    2.66    0.00    4.46     4.6     5.3    5.03    2.75    1.80    1.08    0.91    0.86    0.85    7.44    0.18    0.17    0.16    0.08    0.07    0.03    0.02    0.02    0.02   11.89    4.74    5.44    5.19    2.83    1.87    1.11    0.93    0.88    0.87
 2020 135    26    30     2    47.2    42.0     5.2     0.0    3.69   15.59    0.18    0.00    0.15    3.69    0.00    2.76    0.00    4.96     4.5     5.2    4.97    2.79    1.85    1.09    0.91    0.86    0.85    6.87    0.17    0.16    0.15    0.08    0.07    0.03    0.02    0.02    0.01   11.83    4.66    5.32    5.12    2.87    1.92    1.12    0.93    0.88    0.87
 2020 136    27    30     2    47.2    42.5     4.8     0.0    3.73   16.08    0.18    0.00    0.15    3.73    0.00    2.80    0.00    2.25     3.4     4.7    5.45    3.66    2.37    1.20    0.97    0.89    0.86    6.22    0.16    0.15    0.14    0.07    0.07    0.03    0.02    0.01    0.01    8.47    3.55    4.88    5.60    3.73    2.44    1.23    0.99    0.91    0.87
 2020 137    28    30     2    47.2    42.7     4.5     0.0    3.82   16.38    0.21    0.00    0.15    3.82    0.00    2.88    0.00    1.92     3.0     4.3    5.19    3.71    2.64    1.32    1.05    0.94    0.87    5.87    0.16    0.16    0.14    0.07    0.07    0.03    0.01    0.01    0.01    7.79    3.17    4.48    5.33    3.79    2.71    1.35    1.07    0.95    0.89
 2020 138    29    30     2    46.0    41.6     4.3     0.0    3.97   16.72    0.25    0.00    0.15    3.97    0.00    4.25    0.00    2.12     2.7     3.7    4.48    3.45    2.70    1.46    1.15    0.98    0.88    5.48    0.17    0.16    0.15    0.08    0.07    0.03    0.02    0.01    0.01    7.60    2.86    3.89    4.63    3.53    2.77    1.49    1.16    1.00    0.90
 2020 139    30    30     2    46.1    42.0     4.0     0.0    4.16   17.22    0.27    0.00    0.16    4.16    0.00    4.31    0.00    1.56     2.2     3.4    4.46    3.67    2.96    1.57    1.22    1.03    0.90    4.89    0.18    0.17    0.16    0.08    0.07    0.03    0.02    0.02    0.01    6.44    2.36    3.55    4.62    3.75    3.03    1.60    1.24    1.04    0.91
 2020 140    31    30     2    45.0    41.1     3.9     0.0    4.36   17.57    0.31    0.00    0.16    4.36    0.00    5.54    0.00    1.78     2.0     2.9    3.78    3.33    2.92    1.70    1.33    1.11    0.94    4.52    0.19    0.18    0.17    0.08    0.07    0.03    0.02    0.02    0.01    6.30    2.14    3.07    3.95    3.41    3.00    1.73    1.35    1.12    0.95
 2020 141    32    30     2    44.7    41.1     3.6     0.0    4.57   18.05    0.32    0.00    0.16    4.57    0.00    6.00    0.00    2.26     1.9     2.7    3.52    3.20    2.90    1.75    1.37    1.15    0.96    3.99    0.19    0.18    0.17    0.09    0.08    0.04    0.02    0.02    0.02    6.25    2.07    2.89    3.69    3.28    2.98    1.79    1.39    1.16    0.97
 2020 142    33    30     2    44.9    41.6     3.3     0.0    4.80   18.61    0.33    0.00    0.16    4.80    0.00    6.03    0.00    2.91     1.9     2.7    3.49    3.20    2.92    1.77    1.39    1.16    0.96    3.36    0.19    0.19    0.18    0.09    0.08    0.04    0.02    0.02    0.02    6.27    2.06    2.87    3.67    3.28    3.00    1.81    1.41    1.18    0.98
 2020 143    34    30     2    45.1    42.1     3.0     0.0    5.03   19.12    0.33    0.00    0.16    5.03    0.00    6.07    0.00    1.83     1.9     2.8    3.65    3.30    3.04    1.83    1.43    1.18    0.97    2.83    0.19    0.19    0.18    0.09    0.08    0.04    0.02    0.02    0.02    4.66    2.10    2.96    3.83    3.39    3.12    1.87    1.45    1.20    0.99
 2020 144    35    30     2    45.3    42.3     2.9     0.0    5.30   19.45    0.36    0.00    0.16    5.30    0.00    6.13    0.00    1.91     1.8     2.6    3.47    3.29    3.13    1.90    1.49    1.22    0.99    2.60    0.21    0.20    0.19    0.09    0.09    0.04    0.02    0.02    0.02    4.51    1.97    2.75    3.65    3.38    3.22    1.94    1.51    1.24    1.00
 2020 145    36    30     2    44.7    41.9     2.8     0.0    5.59   19.87    0.39    0.00    0.16    5.59    0.00    7.01    0.00    2.16     1.7     2.3    3.07    3.03    3.02    1.96    1.56    1.29    1.03    2.27    0.21    0.21    0.20    0.10    0.09    0.05    0.02    0.02    0.02    4.43    1.91    2.52    3.26    3.13    3.11    2.01    1.58    1.31    1.05
 2020 146    37    30     2    44.9    42.2     2.6     0.0    5.89   20.32    0.40    0.00    0.17    5.89    0.00    7.06    0.00    1.14     1.4     2.0    2.85    3.14    3.28    2.11    1.68    1.36    1.05    1.93    0.21    0.21    0.20    0.10    0.09    0.05    0.02    0.02    0.02    3.07    1.61    2.26    3.05    3.24    3.38    2.15    1.70    1.38    1.07
 2020 147    38    30     2    43.7    41.1     2.6     0.0    6.15   20.61    0.43    0.00    0.17    6.15    0.00    8.50    0.00    1.20     1.3     1.8    2.40    2.70    2.95    2.13    1.77    1.48    1.15    1.78    0.22    0.22    0.21    0.11    0.10    0.05    0.03    0.02    0.02    2.98    1.49    1.99    2.62    2.80    3.05    2.18    1.79    1.50    1.17
 2020 148    39    30     2    43.3    40.8     2.5     0.0    6.40   20.97    0.45    0.00    0.17    6.40    0.00    9.06    0.00    1.37     1.2     1.7    2.24    2.53    2.83    2.14    1.80    1.53    1.20    1.57    0.23    0.22    0.21    0.11    0.10    0.05    0.03    0.02    0.02    2.94    1.46    1.90    2.46    2.63    2.93    2.19    1.82    1.55    1.22
 2020 149    40    30     2    43.4    41.0     2.4     0.0    6.66   21.35    0.45    0.00    0.17    6.66    0.00    9.25    0.00    1.58     1.2     1.7    2.20    2.47    2.79    2.16    1.82    1.56    1.22    1.36    0.22    0.22    0.21    0.11    0.10    0.05    0.03    0.02    0.02    2.95    1.47    1.88    2.41    2.57    2.89    2.21    1.84    1.58    1.24
 2020 150    41    30     2    43.6    41.3     2.3     0.0    6.92   21.73    0.46    0.00    0.17    6.92    0.00    9.30    0.00    1.82     1.3     1.7    2.20    2.46    2.80    2.17    1.83    1.57    1.22    1.15    0.22    0.22    0.21    0.11    0.10    0.05    0.03    0.03    0.02    2.97    1.49    1.89    2.41    2.56    2.90    2.22    1.85    1.59    1.25
 2020 151    42    30     2    43.9    41.7     2.1     0.0    7.19   22.10    0.46    0.00    0.17    7.19    0.00    9.30    0.00    2.03     1.3     1.7    2.23    2.47    2.81    2.18    1.83    1.57    1.23    0.97    0.22    0.22    0.21    0.11    0.10    0.05    0.03    0.03    0.02    3.01    1.52    1.92    2.44    2.58    2.91    2.23    1.86    1.60    1.25
 2020 152    43    30     2    44.1    42.1     2.1     0.0    7.51   22.50    0.46    0.00    0.18    7.51    0.07    9.30    0.00    2.21     1.3     1.7    2.26    2.49    2.83    2.19    1.84    1.57    1.23    0.80    0.21    0.21    0.21    0.11    0.10    0.05    0.03    0.03    0.02    3.01    1.54    1.94    2.47    2.60    2.93    2.24    1.86    1.60    1.25
 2020 153    44    30     2    44.4    42.5     2.0     0.0    7.87   22.93    0.46    0.00    0.18    7.87    0.09    9.30    0.00    2.39     1.4     1.8    2.29    2.51    2.85    2.20    1.84    1.58    1.23    0.66    0.21    0.21    0.21    0.11    0.10    0.06    0.03    0.03    0.03    3.05    1.57    1.97    2.50    2.62    2.95    2.25    1.87    1.61    1.26
 2020 154    45    30     2    44.6    42.6     1.9     0.0    8.29   23.40    0.46    0.00    0.18    8.29    0.38    9.30    0.00    2.45     1.4     1.7    2.28    2.54    2.87    2.21    1.85    1.59    1.24    0.52    0.20    0.20    0.21    0.11    0.11    0.06    0.03    0.03    0.03    2.97    1.56    1.94    2.49    2.65    2.98    2.27    1.88    1.61    1.27
 2020 155    46    30     2    44.4    42.5     1.9     0.0    8.75   23.91    0.46    0.00    0.20    8.75    1.01    9.30    0.00    2.34     1.3     1.6    2.17    2.56    2.89    2.23    1.86    1.59    1.25    0.37    0.20    0.20    0.20    0.11    0.11    0.06    0.03    0.03    0.03    2.71    1.47    1.82    2.38    2.68    3.00    2.29    1.89    1.62    1.27
 2020 156    47    30     2    44.0    42.2     1.8     0.0    9.23   24.42    0.46    0.00    0.23    9.23    1.80    9.30    0.00    2.17     1.2     1.5    2.01    2.57    2.92    2.25    1.86    1.60    1.25    0.26    0.19    0.19    0.20    0.11    0.11    0.06    0.03    0.03    0.03    2.44    1.38    1.69    2.21    2.69    3.03    2.31    1.90    1.63    1.28
 2020 157    48    30     2    43.7    42.0     1.8     0.0    9.74   24.94    0.47    0.00    0.26    9.74    2.57    9.30    0.00    2.03     1.1     1.4    1.86    2.54    2.95    2.26    1.87    1.61    1.26    0.19    0.19    0.19    0.19    0.11    0.11    0.06    0.03    0.03    0.03    2.22    1.31    1.58    2.06    2.65    3.06    2.33    1.91    1.64    1.29
 2020 158    49    30     2    43.3    41.6     1.7     0.0   10.26   25.45    0.47    0.00    0.28   10.26    3.50    9.30    0.00    1.87     1.1     1.3    1.71    2.42    2.98    2.28    1.88    1.62    1.27    0.14    0.18    0.19    0.19    0.11    0.11    0.06    0.03    0.03    0.03    2.00    1.24    1.48    1.90    2.54    3.09    2.34    1.92    1.65    1.30
 2020 159    50    30     2    42.9    41.1     1.7     0.0   10.78   25.97    0.47    0.00    0.31   10.78    4.44    9.30    0.00    1.73     1.0     1.2    1.58    2.26    3.01    2.30    1.89    1.63    1.27    0.11    0.18    0.18    0.19    0.11    0.11    0.06    0.03    0.03    0.03    1.84    1.19    1.40    1.77    2.37    3.12    2.36    1.93    1.66    1.31
 2020 160    51    30     2    41.7    39.9     1.7     0.0   11.34   26.50    0.47    0.00    0.32   11.34    6.17    9.30    0.00    1.43     0.9     1.0    1.32    1.90    3.04    2.32    1.90    1.63    1.28    0.12    0.18    0.18    0.18    0.11    0.11    0.06    0.03    0.03    0.03    1.55    1.06    1.22    1.51    2.02    3.15    2.39    1.94    1.67    1.32
 2020 161    52    30     2    38.4    36.7     1.7     0.0   11.90   27.06    0.47    0.00    0.34   11.90   10.01    9.30    0.00    0.75     0.5     0.6    0.71    1.04    3.07    2.34    1.91    1.64    1.29    0.10    0.18    0.18    0.18    0.11    0.11    0.06    0.04    0.03    0.03    0.85    0.69    0.76    0.89    1.16    3.18    2.41    1.95    1.68    1.33
 2020 162    53    30     2    38.9    37.1     1.7     0.0   12.42   27.56    0.47    0.00    0.35   12.42   10.01    9.30    0.00    0.79     0.6     0.6    0.76    1.07    3.10    2.36    1.92    1.65    1.30    0.11    0.18    0.18    0.18    0.11    0.11    0.06    0.04    0.04    0.03    0.90    0.75    0.81    0.95    1.19    3.21    2.43    1.96    1.69    1.33
 2020 163    54    30     2    37.1    35.4     1.7     0.0   12.91   28.02    0.48    0.00    0.36   12.91   12.23    9.30    0.00    0.62     0.5     0.5    0.62    0.85    2.57    2.38    1.93    1.66    1.31    0.12    0.18    0.18    0.18    0.11    0.11    0.06    0.04    0.04    0.03    0.74    0.66    0.71    0.80    0.96    2.68    2.45    1.97    1.70    1.34
 2020 164    55    30     2    35.7    33.9     1.8     0.0   13.33   28.43    0.48    0.00    0.37   13.33   14.11    9.30    0.00    0.51     0.4     0.5    0.52    0.69    2.04    2.40    1.94    1.67    1.31    0.12    0.18    0.18    0.18    0.11    0.11    0.06    0.04    0.04    0.03    0.63    0.60    0.63    0.70    0.80    2.16    2.46    1.98    1.71    1.35
 2020 165    56    30     2    33.6    31.8     1.7     0.0   13.72   28.81    0.48    0.00    0.39   13.72   16.58    9.30    0.00    0.35     0.3     0.3    0.37    0.48    1.36    2.41    1.95    1.68    1.32    0.10    0.18    0.18    0.19    0.11    0.11    0.06    0.04    0.03    0.03    0.46    0.49    0.51    0.55    0.59    1.47    2.48    1.98    1.71    1.35
 2020 166    57    30     2    31.7    30.0     1.8     0.0   14.10   29.17    0.48    0.00    0.39   14.10   18.81    9.30    0.00    0.28     0.3     0.3    0.29    0.27    0.61    2.43    1.95    1.68    1.33    0.12    0.18    0.19    0.19    0.11    0.11    0.06    0.03    0.03    0.03    0.40    0.47    0.48    0.47    0.39    0.73    2.49    1.99    1.72    1.36
 2020 167    58    30     2    29.0    27.2     1.8     0.0   14.55   29.61    0.48    0.00    0.39   14.55   22.00    9.30    0.00    0.29     0.3     0.3    0.30    0.28    0.40    1.80    1.96    1.69    1.33    0.13    0.18    0.19    0.19    0.11    0.11    0.06    0.04    0.03    0.03    0.42    0.48    0.48    0.48    0.39    0.52    1.86    2.00    1.73    1.37
 2020 168    59    30     2    25.5    23.7     1.8     0.0   15.07   30.12    0.48    0.00    0.39   15.07   25.96    9.30    0.00    0.30     0.3     0.3    0.31    0.28    0.28    0.94    1.97    1.70    1.34    0.14    0.18    0.18    0.19    0.11    0.11    0.06    0.04    0.03    0.03    0.44    0.49    0.49    0.49    0.40    0.39    1.01    2.01    1.74    1.38
 2020 169    60    30     2    23.6    21.9     1.8     0.0   15.64   30.70    0.48    0.00    0.40   15.64   28.40    9.30    0.00    0.31     0.3     0.3    0.31    0.29    0.28    0.43    1.98    1.71    1.35    0.15    0.18    0.18    0.18    0.11    0.11    0.06    0.04    0.04    0.03    0.45    0.50    0.50    0.49    0.40    0.40    0.49    2.02    1.75    1.39
 2020 170    61    30     2    23.2    21.4     1.7     0.0   16.24   31.32    0.48    0.00    0.40   16.24   29.47    9.30    0.00    0.31     0.3     0.3    0.32    0.29    0.29    0.27    2.00    1.72    1.36    0.14    0.17    0.18    0.18    0.11    0.11    0.06    0.04    0.04    0.03    0.46    0.50    0.50    0.50    0.40    0.40    0.34    2.03    1.76    1.40
 2020 171    62    30     2    23.3    21.5     1.7     0.0   16.84   31.92    0.48    0.00    0.40   16.84   29.97    9.30    0.00    0.31     0.3     0.3    0.31    0.29    0.28    0.27    2.01    1.73    1.37    0.14    0.17    0.17    0.18    0.11    0.11    0.06    0.04    0.04    0.04    0.46    0.49    0.49    0.49    0.40    0.40    0.34    2.04    1.77    1.41
 2020 172    63    30     2    23.3    21.6     1.7     0.0   17.37   32.44    0.48    0.00    0.40   17.37   30.44    9.30    0.00    0.30     0.3     0.3    0.30    0.28    0.28    0.27    2.02    1.74    1.38    0.15    0.17    0.18    0.18    0.11    0.11    0.06    0.04    0.04    0.04    0.45    0.48    0.48    0.48    0.39    0.39    0.33    2.05    1.78    1.42
 2020 173    64    30     2    23.4    21.6     1.8     0.0   17.86   32.92    0.48    0.00    0.40   17.86   30.85    9.30    0.00    0.30     0.3     0.3    0.30    0.28    0.28    0.27    2.03    1.75    1.39    0.15    0.17    0.18    0.18    0.11    0.11    0.06    0.04    0.04    0.04    0.45    0.47    0.48    0.48    0.39    0.39    0.33    2.06    1.79    1.42
 2020 174    65    30     2    23.5    21.7     1.8     0.0   18.33   33.38    0.48    0.00    0.40   18.33   31.23    9.30    0.00    0.30     0.3     0.3    0.30    0.28    0.28    0.27    2.04    1.76    1.40    0.16    0.17    0.18    0.18    0.11    0.11    0.06    0.04    0.04    0.04    0.45    0.47    0.48    0.48    0.39    0.39    0.33    2.07    1.80    1.43
 2020 175    66    30     2    23.5    21.8     1.8     0.0   18.76   33.80    0.48    0.00    0.41   18.76   31.59    9.30    0.00    0.29     0.3     0.3    0.29    0.28    0.27    0.27    2.05    1.77    1.40    0.16    0.17    0.18    0.18    0.11    0.11    0.06    0.04    0.04    0.03    0.45    0.46    0.47    0.48    0.39    0.39    0.33    2.08    1.80    1.44
 2020 176    67    30     2    23.5    21.8     1.8     0.0   19.17   34.21    0.48    0.00    0.41   19.17   32.00    9.30    0.00    0.29     0.3     0.3    0.29    0.28    0.27    0.27    2.01    1.78    1.41    0.16    0.17    0.18    0.18    0.11    0.11    0.06    0.04    0.04    0.03    0.45    0.46    0.47    0.48    0.39    0.39    0.33    2.05    1.81    1.45
 2020 177    68    30     2    23.5    21.7     1.8     0.0   19.60   34.66    0.49    0.00    0.41   19.60   32.48    9.30    0.00    0.30     0.3     0.3    0.30    0.28    0.28    0.27    1.94    1.79    1.42    0.16    0.17    0.18    0.18    0.11    0.11    0.06    0.04    0.04    0.03    0.46    0.47    0.48    0.48    0.39    0.39    0.33    1.98    1.82    1.45
 2020 178    69    30     2    23.4    21.7     1.7     0.0   20.07   35.13    0.49    0.00    0.41   20.07   33.03    9.30    0.00    0.30     0.3     0.3    0.30    0.28    0.28    0.27    1.85    1.79    1.43    0.16    0.17    0.18    0.18    0.11    0.11    0.06    0.04    0.04    0.03    0.46    0.47    0.48    0.48    0.39    0.38    0.33    1.89    1.83    1.46
 2020 179    70    30     2    23.3    21.6     1.7     0.0   20.53   35.61    0.49    0.00    0.41   20.53   33.62    9.30    0.00    0.30     0.3     0.3    0.30    0.28    0.28    0.27    1.75    1.80    1.44    0.16    0.16    0.17    0.18    0.11    0.11    0.06    0.04    0.04    0.03    0.46    0.46    0.47    0.48    0.39    0.38    0.33    1.79    1.84    1.47
 2020 180    71    30     2    23.2    21.5     1.7     0.0   21.01   36.12    0.49    0.00    0.41   21.01   34.21    9.30    0.00    0.30     0.3     0.3    0.30    0.28    0.28    0.27    1.65    1.81    1.44    0.15    0.16    0.17    0.17    0.11    0.10    0.06    0.04    0.04    0.04    0.46    0.46    0.47    0.48    0.39    0.38    0.33    1.69    1.85    1.48
 2020 181    72    30     2    23.1    21.4     1.7     0.0   21.52   36.67    0.49    0.00    0.41   21.52   34.82    9.30    0.00    0.31     0.3     0.3    0.31    0.28    0.28    0.27    1.56    1.82    1.45    0.15    0.15    0.16    0.17    0.10    0.10    0.06    0.04    0.04    0.04    0.46    0.46    0.47    0.47    0.39    0.38    0.34    1.60    1.86    1.49
 2020 182    73    30     2    23.0    21.3     1.6     0.0   22.04   37.24    0.49    0.00    0.41   22.04   35.45    9.30    0.00    0.31     0.3     0.3    0.31    0.29    0.28    0.27    1.47    1.83    1.46    0.14    0.14    0.15    0.16    0.10    0.09    0.06    0.04    0.04    0.04    0.45    0.45    0.46    0.47    0.39    0.37    0.34    1.51    1.87    1.50
 2020 183    74    30     2    22.8    21.2     1.6     0.0   22.53   37.75    0.49    0.00    0.41   22.53   36.09    9.30    0.00    0.30     0.3     0.3    0.30    0.28    0.28    0.27    1.39    1.85    1.47    0.13    0.14    0.15    0.16    0.10    0.09    0.06    0.04    0.04    0.04    0.44    0.44    0.45    0.46    0.38    0.37    0.33    1.42    1.88    1.51
 2020 184    75    30     2    22.7    21.1     1.6     0.0   22.98   38.22    0.49    0.00    0.42   22.98   36.66    9.30    0.00    0.30     0.3     0.3    0.30    0.28    0.27    0.27    1.30    1.86    1.48    0.13    0.14    0.15    0.15    0.09    0.09    0.06    0.04    0.04    0.04    0.43    0.43    0.45    0.45    0.37    0.36    0.33    1.34    1.89    1.52