*SOIL WATER DAILY OUTPUT FILE

*DSSAT Cropping System Model Ver. 4.8.2.000 -release  MAY 26, 2025 18:07:50

*RUN   1        : farm_23                   MZCER048 UNLI2309    1
 MODEL          : MZCER048 - Maize
 EXPERIMENT     : UNLI2309 MZ PIO1366
 DATA PATH      :
 TREATMENT  1   : farm_23                   MZCER048
  
!                                                                                                                                   Soil water content (mm3/mm3) by soil depth (cm):
!                                                                                                                                   0-5    5-15   15-23   23-31   31-46   46-61   61-91  91-106 106-122 122-152 152-167 167-183
@YEAR DOY   DAS    SWTD    SWXD    ROFC    DRNC    PREC    IR#C    IRRC   LATFC    DTWT    MWTD    TDFD    TDFC    ROFD    ROSD    SW1D    SW2D    SW3D    SW4D    SW5D    SW6D    SW7D    SW8D    SW9D   SW10D   SW11D   SW12D
 2020 109     0     425     207       0       0       0       0       0       0     183    0.87     0.0     0.0    0.00    0.00   0.289   0.289   0.289   0.289   0.255   0.255   0.220   0.210   0.210   0.210   0.210   0.210
 2020 110     1     426     208       0       0       2       0       0       0     183    1.17     0.0     0.0    0.00    0.00   0.306   0.289   0.289   0.289   0.255   0.255   0.220   0.210   0.210   0.210   0.210   0.210
 2020 111     2     426     208       0       0       2       0       0       0     183    1.39     0.0     0.0    0.00    0.00   0.302   0.291   0.289   0.289   0.255   0.255   0.220   0.210   0.210   0.210   0.210   0.210
 2020 112     3     426     208       0       0       2       0       0       0     183    0.27     0.0     0.0    0.00    0.00   0.299   0.292   0.290   0.289   0.255   0.255   0.220   0.210   0.210   0.210   0.210   0.210
 2020 113     4     426     208       0       0       2       0       0       0     183    0.05     0.0     0.0    0.00    0.00   0.297   0.293   0.290   0.289   0.255   0.255   0.220   0.210   0.210   0.210   0.210   0.210
 2020 114     5     426     208       0       0       3       0       0       0     183    0.96     0.0     0.0    0.00    0.00   0.293   0.293   0.290   0.290   0.255   0.255   0.220   0.210   0.210   0.210   0.210   0.210
 2020 115     6     429     211       0       0       9       0       0       0     183    2.77     0.0     0.0    0.00    0.00   0.344   0.299   0.290   0.290   0.255   0.255   0.220   0.210   0.210   0.210   0.210   0.210
 2020 116     7     429     211       0       0       9       0       0       0     183    0.80     0.0     0.0    0.00    0.00   0.326   0.307   0.292   0.290   0.255   0.255   0.220   0.210   0.210   0.210   0.210   0.210
 2020 117     8     429     211       0       0       9       0       0       0     183    0.15     0.0     0.0    0.00    0.00   0.319   0.308   0.294   0.291   0.255   0.255   0.220   0.210   0.210   0.210   0.210   0.210
 2020 118     9     429     211       0       0       9       0       0       0     183    0.03     0.0     0.0    0.00    0.00   0.312   0.308   0.296   0.291   0.255   0.255   0.220   0.210   0.210   0.210   0.210   0.210
 2020 119    10     429     210       0       0       9       0       0       0     183    0.01     0.0     0.0    0.00    0.00   0.305   0.307   0.297   0.292   0.255   0.255   0.220   0.210   0.210   0.210   0.210   0.210
 2020 120    11     429     210       0       0       9       0       0       0     183    0.00     0.0     0.0    0.00    0.00   0.300   0.305   0.297   0.293   0.255   0.255   0.220   0.210   0.210   0.210   0.210   0.210
 2020 121    12     428     210       0       0       9       0       0       0     183    0.00     0.0     0.0    0.00    0.00   0.297   0.304   0.298   0.293   0.255   0.255   0.220   0.210   0.210   0.210   0.210   0.210
 2020 122    13     453     235       0       0       9       1      25       0     183    0.00     0.0     0.0    0.00    0.00   0.411   0.397   0.368   0.339   0.260   0.255   0.220   0.210   0.210   0.210   0.210   0.210
 2020 123    14     454     236       0       0      14       1      25       0     183    3.50     0.0     0.0    0.00    0.00   0.375   0.370   0.375   0.356   0.284   0.255   0.220   0.210   0.210   0.210   0.210   0.210
 2020 124    15     465     246       0       0      24       1      25       0     183    1.51     0.0     0.0    0.00    0.00   0.415   0.381   0.386   0.372   0.303   0.270   0.220   0.210   0.210   0.210   0.210   0.210
 2020 125    16     508     290       0       0      46       2      51       0     183    3.58     0.0     0.0    0.00    0.00   0.415   0.405   0.405   0.405   0.368   0.358   0.261   0.223   0.210   0.210   0.210   0.210
 2020 126    17     508     290       0       0      46       2      51       0     183    1.49     0.0     0.0    0.00    0.00   0.366   0.362   0.362   0.362   0.324   0.320   0.258   0.245   0.245   0.245   0.245   0.223
 2020 127    18     501     283       0       7      46       2      51       0     183    0.29     0.0     0.0    0.00    0.00   0.346   0.344   0.344   0.344   0.306   0.304   0.258   0.245   0.245   0.245   0.244   0.246
 2020 128    19     497     279       0      11      46       2      51       0     183    0.06     0.0     0.0    0.00    0.00   0.337   0.338   0.338   0.338   0.299   0.298   0.258   0.245   0.245   0.245   0.245   0.246
 2020 129    20     522     304       0      11      46       3      76       0     183    0.01     0.0     0.0    0.00    0.00   0.411   0.405   0.405   0.382   0.312   0.306   0.261   0.250   0.248   0.247   0.245   0.246
 2020 130    21     506     287       0      28      46       3      76       0     183    0.00     0.0     0.0    0.00    0.00   0.360   0.362   0.362   0.353   0.301   0.299   0.259   0.247   0.246   0.247   0.245   0.246
 2020 131    22     500     281       0      34      46       3      76       0     183    0.00     0.0     0.0    0.00    0.00   0.339   0.344   0.344   0.341   0.297   0.296   0.259   0.247   0.246   0.247   0.245   0.246
 2020 132    23     524     306       0      34      46       4     102       0     183    0.00     0.0     0.0    0.00    0.00   0.414   0.405   0.405   0.390   0.313   0.306   0.261   0.251   0.249   0.247   0.248   0.247
 2020 133    24     507     288       0      51      46       4     102       0     183    0.00     0.0     0.0    0.00    0.00   0.363   0.362   0.362   0.356   0.302   0.299   0.259   0.247   0.247   0.247   0.248   0.247
 2020 134    25     500     282       0      58      46       4     102       0     183    0.00     0.0     0.0    0.00    0.00   0.342   0.344   0.344   0.342   0.297   0.296   0.259   0.247   0.247   0.247   0.248   0.247
 2020 135    26     498     279       0      60      46       4     102       0     183    0.00     0.0     0.0    0.00    0.00   0.331   0.338   0.338   0.337   0.295   0.296   0.259   0.247   0.247   0.247   0.248   0.247
 2020 136    27     536     317       0      61      63       5     127       0     183    3.50     0.0     0.0    0.00    0.00   0.413   0.404   0.405   0.405   0.340   0.323   0.266   0.257   0.252   0.248   0.250   0.249
 2020 137    28     544     325       0      62      72       5     127       0     183    1.51     0.0     0.0    0.00    0.00   0.415   0.398   0.405   0.405   0.339   0.332   0.272   0.268   0.261   0.251   0.255   0.252
 2020 138    29     514     295       0      92      72       5     127       0     183    0.29     0.0     0.0    0.00    0.00   0.366   0.359   0.362   0.362   0.312   0.309   0.263   0.254   0.251   0.248   0.249   0.248
 2020 139    30     538     319       0      93      72       6     152       0     183    0.06     0.0     0.0    0.00    0.00   0.414   0.405   0.405   0.405   0.332   0.323   0.268   0.262   0.257   0.250   0.252   0.250
 2020 140    31     511     293       0     120      72       6     152       0     183    0.01     0.0     0.0    0.00    0.00   0.360   0.362   0.362   0.362   0.309   0.306   0.261   0.252   0.250   0.247   0.248   0.247
 2020 141    32     501     283       0     129      72       6     152       0     183    0.00     0.0     0.0    0.00    0.00   0.332   0.344   0.344   0.344   0.300   0.299   0.259   0.248   0.247   0.247   0.248   0.247
 2020 142    33     500     282       0     130      74       6     152       0     183    1.90     0.0     0.0    0.00    0.00   0.331   0.337   0.341   0.342   0.299   0.299   0.259   0.249   0.248   0.247   0.248   0.248
 2020 143    34     525     307       0     131      74       7     178       0     183    0.65     0.0     0.0    0.00    0.00   0.416   0.404   0.405   0.384   0.312   0.307   0.262   0.252   0.250   0.247   0.249   0.248
 2020 144    35     524     305       0     132      78       7     178       0     183    3.26     0.0     0.0    0.00    0.00   0.373   0.371   0.390   0.387   0.319   0.314   0.265   0.257   0.254   0.249   0.251   0.250
 2020 145    36     506     287       0     150      78       7     178       0     183    0.63     0.0     0.0    0.00    0.00   0.349   0.348   0.356   0.355   0.304   0.302   0.260   0.250   0.249   0.247   0.248   0.247
 2020 146    37     540     322       0     151      91       8     203       0     183    3.53     0.0     0.0    0.00    0.00   0.415   0.405   0.405   0.405   0.347   0.329   0.269   0.261   0.256   0.249   0.251   0.249
 2020 147    38     512     294       0     179      91       8     203       0     183    0.68     0.0     0.0    0.00    0.00   0.366   0.361   0.362   0.362   0.315   0.308   0.262   0.251   0.249   0.247   0.247   0.247
 2020 148    39     502     283       0     189      91       8     203       0     183    0.13     0.0     0.0    0.00    0.00   0.345   0.344   0.344   0.344   0.302   0.300   0.259   0.248   0.247   0.247   0.247   0.247
 2020 149    40     498     280       0     192      91       8     203       0     183    0.03     0.0     0.0    0.00    0.00   0.330   0.337   0.337   0.338   0.297   0.296   0.259   0.248   0.247   0.247   0.247   0.247
 2020 150    41     496     278       0     193      91       8     203       0     183    0.00     0.0     0.0    0.00    0.00   0.320   0.334   0.335   0.335   0.295   0.296   0.259   0.248   0.247   0.247   0.247   0.247
 2020 151    42     496     277       0     193      92       8     203       0     183    0.76     0.0     0.0    0.00    0.00   0.315   0.331   0.334   0.335   0.295   0.296   0.259   0.248   0.247   0.247   0.247   0.247
 2020 152    43     496     277       0     193      92       8     203       0     183    0.15     0.0     0.0    0.00    0.00   0.321   0.328   0.332   0.335   0.295   0.296   0.259   0.248   0.247   0.247   0.247   0.247
 2020 153    44     495     277       0     193      92       8     203       0     183    0.03     0.0     0.0    0.00    0.00   0.313   0.327   0.331   0.334   0.295   0.296   0.259   0.248   0.247   0.247   0.247   0.247
 2020 154    45     494     276       0     193      92       8     203       0     183    0.01     0.0     0.0    0.00    0.00   0.307   0.325   0.330   0.332   0.295   0.296   0.259   0.248   0.247   0.247   0.247   0.247
 2020 155    46     493     275       0     193      92       8     203       0     183    0.00     0.0     0.0    0.00    0.00   0.301   0.322   0.328   0.331   0.295   0.296   0.259   0.248   0.247   0.247   0.247   0.247
 2020 156    47     493     274       0     193      92       8     203       0     183    0.00     0.0     0.0    0.00    0.00   0.296   0.319   0.326   0.329   0.295   0.296   0.259   0.248   0.247   0.247   0.247   0.247
 2020 157    48     491     273       0     193      92       8     203       0     183    0.00     0.0     0.0    0.00    0.00   0.288   0.316   0.324   0.327   0.294   0.296   0.259   0.248   0.247   0.247   0.247   0.247
 2020 158    49     490     272       0     193      93       8     203       0     183    1.24     0.0     0.0    0.00    0.00   0.285   0.312   0.322   0.325   0.293   0.296   0.259   0.248   0.247   0.247   0.247   0.247
 2020 159    50     490     271       0     193      93       8     203       0     183    0.24     0.0     0.0    0.00    0.00   0.289   0.309   0.319   0.323   0.291   0.296   0.259   0.248   0.247   0.247   0.247   0.247
 2020 160    51     488     270       0     193      96       8     203       0     183    2.42     0.0     0.0    0.00    0.00   0.286   0.306   0.316   0.320   0.289   0.296   0.259   0.248   0.247   0.247   0.247   0.247
 2020 161    52     489     271       0     193      98       8     203       0     183    3.04     0.0     0.0    0.00    0.00   0.306   0.305   0.315   0.320   0.288   0.295   0.259   0.248   0.247   0.247   0.247   0.247
 2020 162    53     488     269       0     193      98       8     203       0     183    0.59     0.0     0.0    0.00    0.00   0.301   0.305   0.313   0.317   0.286   0.295   0.259   0.248   0.247   0.247   0.247   0.247
 2020 163    54     487     268       0     193      98       8     203       0     183    0.11     0.0     0.0    0.00    0.00   0.299   0.305   0.311   0.315   0.284   0.292   0.259   0.248   0.247   0.247   0.247   0.247
 2020 164    55     485     267       0     193      98       8     203       0     183    0.02     0.0     0.0    0.00    0.00   0.291   0.304   0.310   0.313   0.282   0.288   0.259   0.248   0.247   0.247   0.247   0.247
 2020 165    56     483     265       0     193      98       8     203       0     183    0.00     0.0     0.0    0.00    0.00   0.282   0.302   0.308   0.311   0.280   0.283   0.259   0.248   0.247   0.247   0.247   0.247
 2020 166    57     481     263       0     193      98       8     203       0     183    0.00     0.0     0.0    0.00    0.00   0.277   0.299   0.306   0.310   0.278   0.279   0.258   0.248   0.247   0.247   0.247   0.247
 2020 167    58     479     261       0     193      98       8     203       0     183    0.00     0.0     0.0    0.00    0.00   0.270   0.296   0.304   0.308   0.276   0.274   0.257   0.248   0.247   0.247   0.247   0.247
 2020 168    59     476     258       0     193      98       8     203       0     183    0.00     0.0     0.0    0.00    0.00   0.265   0.293   0.302   0.305   0.274   0.269   0.256   0.248   0.247   0.247   0.247   0.247
 2020 169    60     474     255       0     193      98       8     203       0     183    0.00     0.0     0.0    0.00    0.00   0.259   0.290   0.299   0.303   0.271   0.264   0.254   0.248   0.247   0.247   0.247   0.247
 2020 170    61     471     253       0     193      98       8     203       0     183    0.00     0.0     0.0    0.00    0.00   0.257   0.286   0.297   0.300   0.268   0.261   0.252   0.247   0.247   0.247   0.247   0.247
 2020 171    62     470     251       0     193     100       8     203       0     183    2.19     0.0     0.0    0.00    0.00   0.259   0.284   0.294   0.298   0.266   0.258   0.251   0.247   0.247   0.247   0.247   0.247
 2020 172    63     467     249       0     193     100       8     203       0     183    0.42     0.0     0.0    0.00    0.00   0.260   0.281   0.292   0.295   0.263   0.255   0.249   0.247   0.247   0.247   0.247   0.247
 2020 173    64     465     247       0     193     100       8     203       0     183    0.08     0.0     0.0    0.00    0.00   0.261   0.278   0.289   0.293   0.260   0.251   0.247   0.247   0.247   0.247   0.247   0.247
 2020 174    65     463     244       0     193     102       8     203       0     183    2.20     0.0     0.0    0.00    0.00   0.258   0.275   0.286   0.289   0.257   0.247   0.245   0.246   0.247   0.247   0.247   0.247
 2020 175    66     460     242       0     193     102       8     203       0     183    0.42     0.0     0.0    0.00    0.00   0.258   0.272   0.283   0.286   0.254   0.243   0.243   0.246   0.247   0.247   0.247   0.247
 2020 176    67     457     239       0     193     102       8     203       0     183    0.08     0.0     0.0    0.00    0.00   0.256   0.269   0.279   0.283   0.250   0.239   0.240   0.246   0.247   0.247   0.247   0.247
 2020 177    68     454     236       0     193     104       8     203       0     183    1.73     0.0     0.0    0.00    0.00   0.252   0.267   0.276   0.280   0.247   0.236   0.238   0.245   0.247   0.247   0.247   0.247
 2020 178    69     451     233       0     193     104       8     203       0     183    0.62     0.0     0.0    0.00    0.00   0.250   0.263   0.272   0.276   0.243   0.231   0.235   0.244   0.247   0.247   0.247   0.247
 2020 179    70     448     229       0     193     104       8     203       0     183    0.12     0.0     0.0    0.00    0.00   0.248   0.260   0.269   0.272   0.240   0.227   0.232   0.243   0.247   0.247   0.247   0.247
 2020 180    71     444     226       0     193     104       8     203       0     183    0.02     0.0     0.0    0.00    0.00   0.241   0.257   0.265   0.268   0.236   0.223   0.229   0.242   0.246   0.247   0.247   0.247
 2020 181    72     440     222       0     193     104       8     203       0     183    0.00     0.0     0.0    0.00    0.00   0.233   0.253   0.261   0.264   0.232   0.218   0.226   0.241   0.246   0.247   0.247   0.247
 2020 182    73     437     219       0     193     104       8     203       0     183    0.00     0.0     0.0    0.00    0.00   0.227   0.249   0.258   0.260   0.228   0.215   0.223   0.240   0.246   0.247   0.247   0.247
 2020 183    74     434     215       0     193     104       8     203       0     183    0.00     0.0     0.0    0.00    0.00   0.220   0.246   0.254   0.257   0.225   0.211   0.221   0.239   0.246   0.247   0.247   0.247
 2020 184    75     431     213       0     193     104       8     203       0     183    0.00     0.0     0.0    0.00    0.00   0.215   0.242   0.251   0.254   0.222   0.208   0.218   0.238   0.246   0.247   0.247   0.247
 2020 185    76     427     209       0     193     104       8     203       0     183    0.00     0.0     0.0    0.00    0.00   0.208   0.238   0.247   0.250   0.218   0.204   0.215   0.237   0.245   0.247   0.247   0.247
 2020 186    77     424     205       0     193     104       8     203       0     183    0.00     0.0     0.0    0.00    0.00   0.203   0.234   0.243   0.246   0.214   0.200   0.212   0.236   0.245   0.247   0.247   0.247
 2020 187    78     420     202       0     193     104       8     203       0     183    0.00     0.0     0.0    0.00    0.00   0.199   0.230   0.240   0.242   0.210   0.197   0.209   0.235   0.245   0.247   0.247   0.247
 2020 188    79     417     198       0     193     104       8     203       0     183    0.00     0.0     0.0    0.00    0.00   0.195   0.226   0.236   0.238   0.206   0.193   0.206   0.234   0.244   0.247   0.247   0.247
 2020 189    80     413     195       0     193     104       8     203       0     183    0.00     0.0     0.0    0.00    0.00   0.190   0.222   0.232   0.234   0.202   0.189   0.203   0.233   0.244   0.247   0.247   0.247
 2020 190    81     410     192       0     193     108       8     203       0     183    3.14     0.0     0.0    0.00    0.00   0.188   0.218   0.228   0.230   0.199   0.187   0.200   0.232   0.243   0.247   0.247   0.247
 2020 191    82     422     203       0     193     123       8     203       0     183    1.23     0.0     0.0    0.00    0.00   0.404   0.255   0.224   0.226   0.195   0.185   0.197   0.232   0.243   0.247   0.247   0.247
 2020 192    83     419     201       0     193     123       8     203       0     183    0.24     0.0     0.0    0.00    0.00   0.341   0.280   0.223   0.223   0.191   0.183   0.194   0.231   0.242   0.246   0.247   0.247
 2020 193    84     416     198       0     193     123       8     203       0     183    0.05     0.0     0.0    0.00    0.00   0.316   0.283   0.224   0.219   0.188   0.182   0.191   0.230   0.242   0.246   0.247   0.247
 2020 194    85     413     195       0     193     123       8     203       0     183    0.01     0.0     0.0    0.00    0.00   0.299   0.280   0.225   0.216   0.186   0.181   0.189   0.229   0.241   0.246   0.247   0.247
 2020 195    86     439     221       0     193     155       8     203       0     183    3.50     0.0     0.0    0.00    0.00   0.402   0.400   0.344   0.230   0.184   0.180   0.186   0.228   0.241   0.246   0.247   0.247
 2020 196    87     438     219       0     193     155       8     203       0     183    2.03     0.0     0.0    0.00    0.00   0.358   0.358   0.322   0.322   0.183   0.179   0.184   0.228   0.240   0.246   0.247   0.247
 2020 197    88     435     217       0     193     155       8     203       0     183    0.39     0.0     0.0    0.00    0.00   0.339   0.338   0.331   0.326   0.187   0.178   0.181   0.227   0.240   0.246   0.247   0.247
 2020 198    89     432     214       0     193     155       8     203       0     183    0.08     0.0     0.0    0.00    0.00   0.332   0.331   0.328   0.323   0.187   0.178   0.178   0.226   0.239   0.246   0.247   0.247
 2020 199    90     429     211       0     193     155       8     203       0     183    0.01     0.0     0.0    0.00    0.00   0.321   0.327   0.324   0.316   0.188   0.177   0.175   0.225   0.238   0.246   0.247   0.247
 2020 200    91     427     209       0     193     155       8     203       0     183    0.00     0.0     0.0    0.00    0.00   0.317   0.323   0.320   0.311   0.188   0.176   0.173   0.224   0.238   0.246   0.247   0.247
 2020 201    92     425     206       0     193     155       8     203       0     183    0.00     0.0     0.0    0.00    0.00   0.310   0.319   0.315   0.306   0.188   0.176   0.171   0.224   0.237   0.246   0.247   0.247
 2020 202    93     422     204       0     193     156       8     203       0     183    0.29     0.0     0.0    0.00    0.00   0.305   0.314   0.311   0.301   0.188   0.176   0.169   0.223   0.237   0.246   0.247   0.247
 2020 203    94     420     202       0     193     156       8     203       0     183    0.05     0.0     0.0    0.00    0.00   0.303   0.310   0.307   0.297   0.188   0.175   0.166   0.222   0.236   0.245   0.247   0.247
 2020 204    95     417     199       0     193     156       8     203       0     183    0.01     0.0     0.0    0.00    0.00   0.295   0.305   0.302   0.292   0.187   0.175   0.164   0.222   0.236   0.245   0.247   0.247
 2020 205    96     415     197       0     193     156       8     203       0     183    0.00     0.0     0.0    0.00    0.00   0.290   0.301   0.298   0.288   0.187   0.174   0.162   0.221   0.235   0.245   0.247   0.247
 2020 206    97     417     199       0     193     164       8     203       0     183    3.50     0.0     0.0    0.00    0.00   0.348   0.310   0.294   0.284   0.187   0.174   0.160   0.220   0.235   0.245   0.247   0.247
 2020 207    98     430     211       0     193     178       8     203       0     183    0.67     0.0     0.0    0.00    0.00   0.403   0.367   0.342   0.297   0.186   0.173   0.158   0.220   0.234   0.245   0.247   0.247
 2020 208    99     429     210       0     193     178       8     203       0     183    0.13     0.0     0.0    0.00    0.00   0.360   0.345   0.327   0.336   0.198   0.173   0.158   0.219   0.234   0.245   0.247   0.247
 2020 209   100     427     208       0     193     178       8     203       0     183    0.02     0.0     0.0    0.00    0.00   0.336   0.334   0.333   0.325   0.207   0.173   0.156   0.219   0.234   0.245   0.247   0.247
 2020 210   101     425     206       0     193     178       8     203       0     183    0.00     0.0     0.0    0.00    0.00   0.324   0.332   0.328   0.320   0.206   0.173   0.155   0.218   0.233   0.244   0.247   0.247
 2020 211   102     454     236       0     193     213       8     203       0     183    3.50     0.0     0.0    0.00    0.00   0.409   0.400   0.400   0.391   0.257   0.173   0.154   0.217   0.233   0.244   0.247   0.247
 2020 212   103     456     237       0     193     216       8     203       0     183    1.98     0.0     0.0    0.00    0.00   0.387   0.372   0.388   0.385   0.297   0.179   0.154   0.217   0.232   0.244   0.247   0.247
 2020 213   104     454     236       0     193     216       8     203       0     183    0.38     0.0     0.0    0.00    0.00   0.352   0.346   0.353   0.351   0.290   0.244   0.154   0.216   0.232   0.244   0.247   0.247
 2020 214   105     452     234       0     193     218       8     203       0     183    2.45     0.0     0.0    0.00    0.00   0.339   0.339   0.345   0.346   0.294   0.248   0.153   0.216   0.232   0.244   0.247   0.247
 2020 215   106     451     233       0     193     218       8     203       0     183    0.47     0.0     0.0    0.00    0.00   0.333   0.333   0.336   0.336   0.290   0.259   0.153   0.216   0.231   0.244   0.247   0.247
 2020 216   107     450     231       0     193     218       8     203       0     183    0.09     0.0     0.0    0.00    0.00   0.332   0.332   0.334   0.332   0.288   0.258   0.153   0.215   0.231   0.243   0.247   0.247
 2020 217   108     449     230       0     193     218       8     203       0     183    0.02     0.0     0.0    0.00    0.00   0.326   0.331   0.332   0.330   0.286   0.257   0.153   0.215   0.231   0.243   0.247   0.247
 2020 218   109     447     228       0     193     218       8     203       0     183    0.00     0.0     0.0    0.00    0.00   0.319   0.329   0.330   0.328   0.284   0.256   0.153   0.214   0.231   0.243   0.247   0.247
 2020 219   110     445     227       0     193     218       8     203       0     183    0.00     0.0     0.0    0.00    0.00   0.314   0.325   0.327   0.325   0.281   0.255   0.153   0.214   0.230   0.243   0.247   0.247
 2020 220   111     443     225       0     193     218       8     203       0     183    0.00     0.0     0.0    0.00    0.00   0.308   0.322   0.324   0.323   0.279   0.253   0.153   0.214   0.230   0.243   0.247   0.247
 2020 221   112     442     224       0     193     221       8     203       0     183    2.19     0.0     0.0    0.00    0.00   0.307   0.319   0.322   0.321   0.277   0.252   0.153   0.213   0.230   0.243   0.247   0.247
 2020 222   113     441     222       0     193     221       8     203       0     183    0.42     0.0     0.0    0.00    0.00   0.310   0.316   0.319   0.318   0.275   0.251   0.153   0.213   0.229   0.242   0.247   0.247
 2020 223   114     440     221       0     193     221       8     203       0     183    0.08     0.0     0.0    0.00    0.00   0.309   0.314   0.317   0.316   0.273   0.250   0.153   0.213   0.229   0.242   0.247   0.247
 2020 224   115     438     220       0     193     221       8     203       0     183    0.02     0.0     0.0    0.00    0.00   0.303   0.313   0.315   0.314   0.271   0.248   0.153   0.212   0.229   0.242   0.246   0.247
 2020 225   116     437     218       0     193     221       8     203       0     183    0.00     0.0     0.0    0.00    0.00   0.297   0.310   0.313   0.312   0.269   0.247   0.153   0.212   0.229   0.242   0.246   0.247
 2020 226   117     435     217       0     193     221       8     203       0     183    0.00     0.0     0.0    0.00    0.00   0.290   0.307   0.310   0.310   0.267   0.246   0.153   0.212   0.228   0.242   0.246   0.247
 2020 227   118     434     215       0     193     221       8     203       0     183    0.00     0.0     0.0    0.00    0.00   0.286   0.304   0.308   0.308   0.266   0.245   0.154   0.212   0.228   0.242   0.246   0.247
 2020 228   119     433     214       0     193     221       8     203       0     183    0.00     0.0     0.0    0.00    0.00   0.283   0.302   0.306   0.306   0.264   0.244   0.154   0.211   0.228   0.242   0.246   0.247
 2020 229   120     431     213       0     193     221       8     203       0     183    0.00     0.0     0.0    0.00    0.00   0.280   0.299   0.304   0.304   0.263   0.243   0.154   0.211   0.228   0.241   0.246   0.247
 2020 230   121     430     212       0     193     221       8     203       0     183    0.00     0.0     0.0    0.00    0.00   0.275   0.297   0.302   0.302   0.261   0.242   0.154   0.211   0.227   0.241   0.246   0.247
 2020 231   122     429     211       0     193     221       8     203       0     183    0.00     0.0     0.0    0.00    0.00   0.271   0.294   0.300   0.301   0.260   0.241   0.154   0.211   0.227   0.241   0.246   0.247
 2020 232   123     428     210       0     193     221       8     203       0     183    0.00     0.0     0.0    0.00    0.00   0.268   0.291   0.298   0.299   0.259   0.240   0.154   0.210   0.227   0.241   0.246   0.247
 2020 233   124     427     208       0     193     221       8     203       0     183    0.00     0.0     0.0    0.00    0.00   0.265   0.289   0.297   0.297   0.258   0.239   0.154   0.210   0.227   0.241   0.246   0.247
 2020 234   125     426     207       0     193     221       8     203       0     183    0.00     0.0     0.0    0.00    0.00   0.264   0.287   0.295   0.296   0.256   0.239   0.154   0.210   0.227   0.241   0.245   0.247
 2020 235   126     425     206       0     193     221       8     203       0     183    0.00     0.0     0.0    0.00    0.00   0.259   0.285   0.293   0.294   0.255   0.238   0.155   0.210   0.227   0.241   0.245   0.247
 2020 236   127     424     205       0     193     221       8     203       0     183    0.00     0.0     0.0    0.00    0.00   0.255   0.283   0.291   0.293   0.254   0.237   0.155   0.210   0.226   0.240   0.245   0.247
 2020 237   128     423     204       0     193     221       8     203       0     183    0.00     0.0     0.0    0.00    0.00   0.251   0.280   0.290   0.291   0.253   0.236   0.155   0.209   0.226   0.240   0.245   0.247