*PLANT N OUTPUT FILE

*DSSAT Cropping System Model Ver. 4.8.2.000 -release  MAY 26, 2025 18:07:50

*RUN   1        : farm_23                   MZCER048 UNLI2309    1
 MODEL          : MZCER048 - Maize
 EXPERIMENT     : UNLI2309 MZ PIO1366
 DATA PATH      :
 TREATMENT  1   : farm_23                   MZCER048
  
@YEAR DOY   DAS   DAP   CNAD   GNAD   VNAD   GN%D   VN%D   NUPC   LNAD   SNAD   LN%D   SN%D   RN%D   SNN0C   SNN1C
 2020 122    13     0    0.0    0.0    0.0   0.00   0.00    0.0    0.0    0.0    0.0   0.00   0.00    0.00    0.00
 2020 123    14     1    0.0    0.0    0.0   0.00   0.00    0.0    0.0    0.0    0.0   0.00   0.00    0.00    0.00
 2020 124    15     2    0.0    0.0    0.0   0.00   0.00    0.0    0.0    0.0    0.0   0.00   0.00    0.00    0.00
 2020 125    16     3    0.0    0.0    0.0   0.00   0.00    0.0    0.0    0.0    0.0   0.00   0.00    0.00    0.00
 2020 126    17     4    0.0    0.0    0.0   0.00   0.00    0.0    0.0    0.0    0.0   0.00   0.00    0.00    0.00
 2020 127    18     5    0.0    0.0    0.0   0.00   0.00    0.0    0.0    0.0    0.0   0.00   0.00    0.00    0.00
 2020 128    19     6    0.0    0.0    0.0   0.00   0.00    0.0    0.0    0.0    0.0   0.00   0.00    0.00    0.00
 2020 129    20     7    0.0    0.0    0.0   0.00   0.00    0.0    0.0    0.0    0.0   0.00   0.00    0.00    0.00
 2020 130    21     8    0.0    0.0    0.0   0.00   0.00    0.0    0.0    0.0    0.0   0.00   0.00    0.00    0.00
 2020 131    22     9    0.0    0.0    0.0   0.00   0.00    0.0    0.0    0.0    0.0   0.00   0.00    0.00    0.00
 2020 132    23    10    0.0    0.0    0.0   0.00   0.00    0.0    0.0    0.0    0.0   0.00   0.00    0.00    0.00
 2020 133    24    11    0.0    0.0    0.0   0.00   0.00    0.0    0.0    0.0    0.0   0.00   0.00    0.00    0.00
 2020 134    25    12    0.0    0.0    0.0   0.00   0.00    0.0    0.0    0.0    0.0   0.00   0.00    0.00    0.00
 2020 135    26    13    0.0    0.0    0.0   0.00   0.00    0.0    0.0    0.0    0.0   0.00   0.00    0.00    0.00
 2020 136    27    14    0.0    0.0    0.0   0.00   0.00    0.0    0.0    0.0    0.0   0.00   0.00    0.00    0.00
 2020 137    28    15    0.0    0.0    0.0   0.00   0.00    0.0    0.0    0.0    0.0   0.00   0.00    0.00    0.00
 2020 138    29    16    0.0    0.0    0.0   0.00   0.00    0.0    0.0    0.0    0.0   0.00   0.00    0.00    0.00
 2020 139    30    17    0.0    0.0    0.0   0.00   0.00    0.0    0.0    0.0    0.0   0.00   0.00    0.00    0.00
 2020 140    31    18    1.4    0.0    1.4   0.00   4.40    0.0    0.7    0.7    4.4   4.40   2.19    0.00    0.00
 2020 141    32    19    1.4    0.0    1.4   0.00   4.40    0.0    0.7    0.7    4.4   4.40   2.15    0.00    0.00
 2020 142    33    20    1.4    0.0    1.4   0.00   4.40    0.0    0.7    0.7    4.4   4.40   2.14    0.00    0.00
 2020 143    34    21    1.4    0.0    1.4   0.00   4.40    0.0    0.7    0.7    4.4   4.40   2.08    0.00    0.00
 2020 144    35    22    1.4    0.0    1.4   0.00   4.40    0.0    0.7    0.7    4.4   4.40   1.96    0.00    0.00
 2020 145    36    23    1.4    0.0    1.4   0.00   4.40    0.0    0.7    0.7    4.4   4.40   1.86    0.00    0.00
 2020 146    37    24    1.4    0.0    1.4   0.00   4.40    0.0    0.7    0.7    4.4   4.40   1.76    0.00    0.00
 2020 147    38    25    1.4    0.0    1.4   0.00   4.40    0.0    0.7    0.7    4.4   4.40   1.57    0.00    0.00
 2020 148    39    26    1.4    0.0    1.4   0.00   4.40    0.0    0.7    0.7    4.4   4.40   1.41    0.00    0.00
 2020 149    40    27    1.4    0.0    1.4   0.00   4.40    0.0    0.7    0.7    4.4   4.40   1.27    0.00    0.00
 2020 150    41    28    1.4    0.0    1.4   0.00   4.40    0.0    0.7    0.7    4.4   4.40   1.12    0.00    0.00
 2020 151    42    29    1.4    0.0    1.4   0.00   4.27    0.1    0.7    0.7    4.3   4.27   1.26    0.00    0.00
 2020 152    43    30    1.4    0.0    1.4   0.00   3.54    0.1    0.8    0.6    3.5   3.54   1.20    0.00    0.00
 2020 153    44    31    1.6    0.0    1.6   0.00   3.12    0.4    1.1    0.5    3.1   3.12   1.18    0.00    0.01
 2020 154    45    32    2.1    0.0    2.1   0.00   3.22    1.0    1.6    0.5    3.2   3.22   1.24    0.00    0.01
 2020 155    46    33    2.7    0.0    2.7   0.00   3.37    1.8    2.2    0.5    3.4   3.37   1.32    0.00    0.01
 2020 156    47    34    3.2    0.0    3.2   0.00   3.40    2.6    2.7    0.6    3.4   3.40   1.34    0.00    0.02
 2020 157    48    35    3.8    0.0    3.8   0.00   3.25    3.5    3.3    0.5    3.2   3.25   1.34    0.00    0.02
 2020 158    49    36    4.7    0.0    4.7   0.00   3.13    4.4    4.2    0.5    3.1   3.13   1.22    0.00    0.03
 2020 159    50    37    6.0    0.0    6.0   0.00   3.11    6.2    5.5    0.5    3.1   3.11   1.30    0.00    0.04
 2020 160    51    38    9.4    0.0    9.4   0.00   4.04   10.0    8.8    0.7    4.0   4.04   1.31    0.00    0.05
 2020 161    52    39    9.4    0.0    9.4   0.00   3.83   10.0    8.8    0.6    3.8   3.83   1.30    0.00    0.05
 2020 162    53    40   10.6    0.0   10.6   0.00   3.89   12.2    9.9    0.6    3.9   3.89   1.40    0.00    0.06
 2020 163    54    41   11.8    0.0   11.8   0.00   3.83   14.1   11.1    0.6    3.8   3.83   1.33    0.00    0.07
 2020 164    55    42   13.5    0.0   13.5   0.00   3.80   16.6   12.9    0.6    3.8   3.80   1.29    0.00    0.10
 2020 165    56    43   15.1    0.0   15.1   0.00   3.67   18.8   14.5    0.7    3.7   3.67   1.23    0.00    0.12
 2020 166    57    44   18.1    0.0   18.1   0.00   3.64   22.0   17.3    0.8    3.6   3.64   1.17    0.00    0.15
 2020 167    58    45   21.3    0.0   21.3   0.00   3.56   26.0   20.2    1.1    3.6   3.56   1.18    0.00    0.17
 2020 168    59    46   23.2    0.0   23.2   0.00   3.27   28.4   21.9    1.4    3.3   3.27   1.12    0.00    0.20
 2020 169    60    47   24.1    0.0   24.1   0.00   2.85   29.5   22.4    1.7    2.9   2.85   1.03    0.00    0.24
 2020 170    61    48   24.5    0.0   24.5   0.00   2.64   30.0   22.6    1.9    2.6   2.64   0.96    0.00    0.27
 2020 171    62    49   24.9    0.0   24.9   0.00   2.52   30.4   22.8    2.1    2.5   2.52   0.91    0.00    0.31
 2020 172    63    50   25.2    0.0   25.2   0.00   2.38   30.9   22.8    2.4    2.4   2.38   0.82    0.00    0.34
 2020 173    64    51   25.5    0.0   25.5   0.00   2.19   31.2   22.8    2.7    2.2   2.19   0.78    0.00    0.38
 2020 174    65    52   25.7    0.0   25.7   0.00   2.07   31.6   22.8    3.0    2.1   2.07   0.72    0.00    0.41
 2020 175    66    53   26.0    0.0   26.0   0.00   1.99   32.0   22.8    3.2    2.0   1.99   0.66    0.00    0.45
 2020 176    67    54   26.4    0.0   26.4   0.00   1.88   32.5   22.8    3.5    1.9   1.88   0.62    0.00    0.49
 2020 177    68    55   26.8    0.0   26.8   0.00   1.77   33.0   22.8    4.0    1.8   1.77   0.60    0.00    0.52
 2020 178    69    56   27.2    0.0   27.2   0.00   1.68   33.6   22.8    4.4    1.7   1.68   0.57    0.00    0.56
 2020 179    70    57   27.7    0.0   27.7   0.00   1.49   34.2   23.0    4.6    1.5   1.49   0.58    0.00    0.60
 2020 180    71    58   28.2    0.0   28.2   0.00   1.36   34.8   22.3    5.9    1.4   1.36   0.58    0.00    0.64
 2020 181    72    59   28.7    0.0   28.7   0.00   1.27   35.4   21.8    6.9    1.3   1.27   0.57    0.00    0.68
 2020 182    73    60   29.2    0.0   29.2   0.00   1.25   36.1   21.8    7.4    1.2   1.25   0.56    0.00    0.72
 2020 183    74    61   29.6    0.0   29.6   0.00   1.23   36.7   21.7    7.9    1.2   1.23   0.54    0.00    0.76
 2020 184    75    62   30.1    0.0   30.1   0.00   1.20   37.2   21.5    8.5    1.2   1.20   0.54    0.00    0.80
 2020 185    76    63   30.5    0.0   30.5   0.00   1.17   37.7   21.4    9.1    1.2   1.17   0.53    0.00    0.84
 2020 186    77    64   30.9    0.0   30.9   0.00   1.14   38.2   21.2    9.6    1.1   1.14   0.51    0.00    0.88
 2020 187    78    65   31.2    0.0   31.2   0.00   1.12   38.7   21.1   10.1    1.1   1.12   0.51    0.00    0.92
 2020 188    79    66   31.6    0.0   31.6   0.00   1.10   39.2   21.0   10.6    1.1   1.10   0.50    0.00    0.96
 2020 189    80    67   32.0    0.0   32.0   0.00   1.09   39.7   21.0   11.1    1.1   1.09   0.50    0.00    1.00
 2020 190    81    68   32.5    0.0   32.5   0.00   1.07   40.3   21.0   11.5    1.1   1.07   0.49    0.00    1.04
 2020 191    82    69   33.0    0.0   33.0   0.00   1.08   40.9   21.3   11.7    1.1   1.08   0.49    0.00    1.09
 2020 192    83    70   33.5    0.0   33.5   0.00   1.08   41.5   21.5   11.9    1.1   1.08   0.48    0.00    1.13
 2020 193    84    71   33.9    0.0   33.9   0.00   1.09   42.1   21.9   12.0    1.1   1.09   0.48    0.00    1.17
 2020 194    85    72   34.4    0.0   34.4   0.00   1.09   42.7   22.0   12.4    1.1   1.09   0.48    0.00    1.22
 2020 195    86    73   34.9    0.0   34.9   0.00   1.09   43.4   22.4   12.5    1.1   1.09   0.48    0.00    1.26
 2020 196    87    74   35.3    0.0   35.3   0.00   1.09   43.9   22.5   12.8    1.1   1.09   0.48    0.00    1.31
 2020 197    88    75   35.7    0.0   35.7   0.00   1.07   44.4   21.9   13.8    1.1   1.07   0.49    0.00    1.35
 2020 198    89    76   36.2    0.0   36.2   0.00   1.06   45.0   21.3   14.9    1.1   1.06   0.49    0.00    1.40
 2020 199    90    77   36.6    0.0   36.6   0.00   1.04   45.6   20.7   16.0    1.0   1.04   0.49    0.00    1.44
 2020 200    91    78   37.1    0.0   37.1   0.00   1.04   46.1   20.3   16.7    1.0   1.04   0.50    0.00    1.49
 2020 201    92    79   37.5    0.0   37.5   0.00   1.03   46.7   19.9   17.7    1.0   1.03   0.50    0.00    1.54
 2020 202    93    80   38.0    0.0   38.0   0.00   1.03   47.3   19.4   18.5    1.0   1.03   0.51    0.00    1.58
 2020 203    94    81   38.4    0.0   38.4   0.00   1.02   47.8   18.9   19.5    1.0   1.02   0.51    0.00    1.63
 2020 204    95    82   38.8    0.0   38.8   0.00   1.02   48.3   18.4   20.4    1.0   1.02   0.52    0.00    1.68
 2020 205    96    83   39.2    0.0   39.2   0.00   1.02   48.8   18.0   21.2    1.0   1.02   0.52    0.00    1.73
 2020 206    97    84   39.6    0.0   39.6   0.00   1.02   49.3   17.6   22.0    1.0   1.02   0.53    0.00    1.78
 2020 207    98    85   40.0    1.1   38.9   0.82   1.00   49.9   17.3   21.6    1.0   1.00   0.53    0.00    1.83
 2020 208    99    86   40.4    1.7   38.7   0.80   1.00   50.3   17.3   21.4    1.0   1.00   0.54    0.00    1.87
 2020 209   100    87   40.7    2.2   38.5   0.80   0.99   50.8   17.1   21.4    1.0   0.99   0.54    0.00    1.92
 2020 210   101    88   41.1    2.8   38.4   0.80   0.99   51.3   17.0   21.3    1.0   0.99   0.54    0.00    1.97
 2020 211   102    89   41.6    3.3   38.3   0.79   0.99   51.9   17.0   21.3    1.0   0.99   0.55    0.00    2.02
 2020 212   103    90   41.9    3.9   38.0   0.79   0.98   52.3   16.9   21.1    1.0   0.98   0.55    0.00    2.07
 2020 213   104    91   42.2    4.4   37.8   0.79   0.97   52.7   16.8   21.0    1.0   0.97   0.55    0.00    2.12
 2020 214   105    92   42.5    4.9   37.5   0.79   0.97   53.1   16.7   20.9    1.0   0.97   0.56    0.00    2.17
 2020 215   106    93   42.9    5.5   37.4   0.79   0.96   53.6   16.6   20.8    1.0   0.96   0.56    0.00    2.23
 2020 216   107    94   43.2    6.0   37.2   0.79   0.96   54.1   16.5   20.7    1.0   0.96   0.57    0.00    2.28
 2020 217   108    95   43.6    6.6   37.0   0.79   0.95   54.5   16.4   20.6    1.0   0.95   0.57    0.00    2.33
 2020 218   109    96   43.9    7.1   36.8   0.79   0.95   55.0   16.3   20.4    0.9   0.95   0.57    0.00    2.38
 2020 219   110    97   44.2    7.7   36.6   0.79   0.94   55.4   16.2   20.3    0.9   0.94   0.58    0.00    2.43
 2020 220   111    98   44.6    8.2   36.3   0.79   0.94   55.9   16.1   20.2    0.9   0.94   0.58    0.00    2.49
 2020 221   112    99   45.0    8.8   36.2   0.79   0.93   56.4   16.1   20.1    0.9   0.93   0.59    0.00    2.54
 2020 222   113   100   45.4    9.3   36.0   0.79   0.93   56.9   16.0   20.0    0.9   0.93   0.60    0.00    2.59
 2020 223   114   101   45.8    9.9   35.9   0.79   0.92   57.4   15.9   20.0    0.9   0.92   0.60    0.00    2.65
 2020 224   115   102   46.2   10.4   35.8   0.79   0.92   58.0   15.9   19.9    0.9   0.92   0.61    0.00    2.70
 2020 225   116   103   46.6   11.0   35.6   0.79   0.92   58.5   15.8   19.8    0.9   0.92   0.61    0.00    2.75
 2020 226   117   104   47.0   11.6   35.4   0.79   0.91   59.0   15.7   19.7    0.9   0.91   0.62    0.00    2.81
 2020 227   118   105   47.4   12.1   35.3   0.79   0.91   59.6   15.7   19.6    0.9   0.91   0.63    0.00    2.86
 2020 228   119   106   47.8   12.7   35.1   0.79   0.91   60.1   15.6   19.5    0.9   0.91   0.63    0.00    2.92
 2020 229   120   107   48.2   13.2   35.0   0.79   0.91   60.6   15.6   19.3    0.9   0.91   0.64    0.00    2.97
 2020 230   121   108   48.6   13.8   34.8   0.79   0.90   61.1   15.5   19.2    0.9   0.90   0.65    0.00    3.03
 2020 231   122   109   49.0   14.4   34.6   0.80   0.90   61.6   15.5   19.1    0.9   0.90   0.66    0.00    3.09
 2020 232   123   110   49.3   14.9   34.4   0.80   0.90   62.1   15.5   18.9    0.9   0.90   0.66    0.00    3.14
 2020 233   124   111   49.7   15.5   34.2   0.80   0.90   62.6   15.5   18.7    0.9   0.90   0.67    0.00    3.20
 2020 234   125   112   50.1   16.1   34.0   0.80   0.90   63.1   15.5   18.6    0.9   0.90   0.68    0.00    3.26
 2020 235   126   113   50.5   16.7   33.9   0.80   0.90   63.7   15.5   18.4    0.9   0.90   0.69    0.00    3.32
 2020 236   127   114   51.0   17.3   33.7   0.80   0.90   64.2   15.5   18.2    0.9   0.90   0.69    0.00    3.37
 2020 237   128   115   51.4   17.8   33.6   0.80   0.90   64.8   15.5   18.1    0.9   0.90   0.70    0.00    3.43
 2020 238   129   116   51.8   18.4   33.4   0.81   0.90   65.3   15.4   18.0    0.9   0.90   0.71    0.00    3.49
 2020 239   130   117   52.3   19.0   33.3   0.81   0.90   65.9   15.4   17.8    0.9   0.90   0.72    0.00    3.55
 2020 240   131   118   52.7   19.6   33.1   0.81   0.90   66.5   15.5   17.7    0.9   0.90   0.73    0.00    3.61
 2020 241   132   119   53.1   20.2   33.0   0.81   0.90   67.1   15.5   17.5    0.9   0.90   0.73    0.00    3.67
 2020 242   133   120   53.6   20.8   32.8   0.81   0.90   67.7   15.5   17.3    0.9   0.90   0.74    0.00    3.73
 2020 243   134   121   53.9   21.4   32.5   0.82   0.90   68.1   15.5   17.0    0.9   0.90   0.75    0.00    3.79
 2020 244   135   122   54.3   22.1   32.3   0.82   0.90   68.6   15.5   16.8    0.9   0.90   0.76    0.00    3.85
 2020 245   136   123   54.6   22.7   31.9   0.82   0.89   69.1   15.4   16.5    0.9   0.89   0.77    0.00    3.91
 2020 246   137   124   54.9   23.3   31.6   0.82   0.89   69.5   15.4   16.2    0.9   0.89   0.77    0.00    3.97
 2020 247   138   125   55.2   23.9   31.3   0.82   0.89   69.9   15.3   16.0    0.9   0.89   0.78    0.00    4.04
 2020 248   139   126   55.5   24.6   30.9   0.83   0.89   70.3   15.3   15.7    0.9   0.89   0.79    0.00    4.10
 2020 249   140   127   55.8   25.2   30.6   0.83   0.88   70.7   15.2   15.4    0.9   0.88   0.79    0.00    4.16
 2020 250   141   128   56.1   25.8   30.3   0.83   0.88   71.1   15.2   15.0    0.9   0.88   0.80    0.00    4.22
 2020 251   142   129   56.4   26.4   30.0   0.83   0.88   71.6   15.2   14.8    0.9   0.88   0.81    0.00    4.29
 2020 252   143   130   56.7   26.4   30.3   0.83   0.89   72.0   15.4   14.9    0.9   0.89   0.82    0.00    4.35
 2020 253   144   131   57.0   26.4   30.6   0.83   0.90   72.4   15.5   15.0    0.9   0.90   0.82    0.00    4.41
 2020 254   145   132   57.2   26.6   30.6   0.83   0.90   72.7   15.5   15.0    0.9   0.90   0.83    0.00    4.48
 2020 255   146   133   57.4   27.2   30.2   0.83   0.90   72.9   15.6   14.6    0.9   0.90   0.84    0.00    4.54
 2020 256   147   134   57.5   27.8   29.7   0.84   0.90   73.1   15.5   14.2    0.9   0.90   0.84    0.00    4.60
 2020 257   148   135   57.7   28.4   29.2   0.84   0.90   73.4   15.5   13.8    0.9   0.90   0.85    0.00    4.67
 2020 258   149   136   57.8   29.1   28.7   0.84   0.90   73.6   15.4   13.3    0.9   0.90   0.85    0.00    4.73
 2020 259   150   137   58.0   29.8   28.3   0.84   0.90   73.9   15.4   12.8    0.9   0.90   0.86    0.00    4.80
 2020 260   151   138   58.3   30.4   27.9   0.85   0.90   74.3   15.5   12.4    0.9   0.90   0.87    0.00    4.86
 2020 261   152   139   58.5   31.0   27.5   0.85   0.90   74.6   15.5   12.1    0.9   0.90   0.87    0.00    4.92
 2020 262   153   140   58.7   31.6   27.1   0.85   0.90   74.9   15.5   11.6    0.9   0.90   0.88    0.00    4.99
 2020 263   154   141   59.0   32.3   26.7   0.85   0.90   75.3   15.5   11.1    0.9   0.90   0.89    0.00    5.05
 2020 264   155   142   59.0   32.3   26.7   0.85   0.90   75.3   15.5   11.1    0.9   0.90   0.89    0.00    5.05
 2020 265   156   143   59.0   32.3   26.7   0.85   0.90   75.3   15.5   11.1    0.9   0.90   0.89    0.00    5.05
 2020 266   157   144   59.0   32.3   26.7   0.85   0.90   75.3   15.5   11.1    0.9   0.90   0.89    0.00    5.05
 2020 267   158   145   59.0   32.3   26.7   0.85   0.90   75.3   15.5   11.1    0.9   0.90   0.89    0.00    5.05
 2020 268   159   146   59.0   32.3   26.7   0.85   0.90   75.3   15.5   11.1    0.9   0.90   0.89    0.00    5.05
