*SOIL-PLANT-ATMOSPHERE MODULE OUTPUT FILE

*DSSAT Cropping System Model Ver. 4.8.2.000 -release  MAY 26, 2025 18:07:50

*RUN   1        : farm_23                   MZCER048 UNLI2309    1
 MODEL          : MZCER048 - Maize
 EXPERIMENT     : UNLI2309 MZ PIO1366
 DATA PATH      :
 TREATMENT  1   : farm_23                   MZCER048
  
@YEAR DOY   DAS   SRAA  TMAXA  TMINA    REFA    EOAA    EOPA    EOSA    ETAA    EPAA    ESAA    EFAA    EMAA    EOAC    ETAC    EPAC    ESAC    EFAC    EMAC    KCAA    KBSA    KEAA
 2020 110     1  23.50  16.50   0.00   1.924   2.318   0.000   2.318   0.859   0.000   0.282   0.000   0.578    2.32    0.86    0.00    0.28    0.00    0.58   0.447   0.000   0.447 
 2020 111     2  22.70  18.90   1.60   1.651   1.990   0.000   1.990   0.947   0.000   0.000   0.000   0.947    4.31    1.81    0.00    0.28    0.00    1.52   0.574   0.000   0.574 
 2020 112     3  25.00  23.10  -2.00   1.676   2.020   0.000   2.020   1.119   0.000   0.000   0.000   1.119    6.33    2.93    0.00    0.28    0.00    2.64   0.668   0.000   0.668 
 2020 113     4  23.80  24.10   4.00   1.809   2.180   0.000   2.180   0.246   0.000   0.030   0.000   0.215    8.51    3.17    0.00    0.31    0.00    2.86   0.136   0.000   0.136 
 2020 114     5  22.40  23.30   2.30   1.694   2.041   0.000   2.041   0.230   0.000   0.189   0.000   0.041   10.55    3.40    0.00    0.50    0.00    2.90   0.136   0.000   0.136 
 2020 115     6  12.80  15.30   6.00   1.299   1.557   0.000   1.557   0.775   0.000   0.000   0.000   0.775   12.11    4.18    0.00    0.50    0.00    3.68   0.597   0.000   0.597 
 2020 116     7  25.80  17.40   2.70   1.838   2.215   0.000   2.215   1.965   0.000   0.000   0.000   1.965   14.32    6.14    0.00    0.50    0.00    5.64   1.069   0.000   1.069 
 2020 117     8  24.10  25.10   2.10   1.800   2.169   0.000   2.169   0.647   0.000   0.000   0.000   0.647   16.49    6.79    0.00    0.50    0.00    6.29   0.359   0.000   0.359 
 2020 118     9  26.30  27.00   7.30   2.073   2.499   0.000   2.499   0.282   0.000   0.157   0.000   0.124   18.99    7.07    0.00    0.66    0.00    6.41   0.136   0.000   0.136 
 2020 119    10  22.20  20.50  10.30   1.967   2.366   0.000   2.366   0.267   0.000   0.243   0.000   0.024   21.35    7.34    0.00    0.90    0.00    6.44   0.136   0.000   0.136 
 2020 120    11  27.50  20.90   6.40   2.048   2.468   0.000   2.468   0.278   0.000   0.274   0.000   0.005   23.82    7.61    0.00    1.17    0.00    6.44   0.136   0.000   0.136 
 2020 121    12  25.70  28.10   1.20   1.969   2.374   0.000   2.374   0.267   0.000   0.267   0.000   0.001   26.20    7.88    0.00    1.44    0.00    6.44   0.136   0.000   0.136 
 2020 122    13  26.30  29.20  12.40   2.257   2.720   0.000   2.720   0.307   0.000   0.306   0.000   0.000   28.92    8.19    0.00    1.75    0.00    6.44   0.136   0.000   0.136 
 2020 123    14  15.30  16.90  10.70   1.623   1.940   0.000   1.940   0.219   0.000   0.219   0.000   0.000   30.86    8.41    0.00    1.97    0.00    6.44   0.135   0.000   0.135 
 2020 124    15  20.30  21.70   6.70   1.869   2.248   0.000   2.248   1.995   0.000   0.000   0.000   1.995   33.10   10.40    0.00    1.97    0.00    8.44   1.067   0.000   1.067 
 2020 125    16   9.10  14.00   6.50   1.130   1.351   0.000   1.351   1.199   0.000   0.000   0.000   1.199   34.46   11.60    0.00    1.97    0.00    9.64   1.061   0.000   1.061 
 2020 126    17  24.30  19.20   4.30   1.953   2.353   0.000   2.353   2.088   0.000   0.000   0.000   2.088   36.81   13.69    0.00    1.97    0.00   11.72   1.069   0.000   1.069 
 2020 127    18  25.70  16.60   1.50   1.901   2.289   0.000   2.289   1.206   0.000   0.000   0.000   1.206   39.10   14.89    0.00    1.97    0.00   12.93   0.634   0.000   0.634 
 2020 128    19  27.00  20.60   4.90   2.131   2.569   0.000   2.569   0.289   0.000   0.058   0.000   0.232   41.67   15.18    0.00    2.02    0.00   13.16   0.136   0.000   0.136 
 2020 129    20  29.00  15.10   3.40   2.105   2.534   0.000   2.534   0.286   0.000   0.241   0.000   0.045   44.20   15.47    0.00    2.26    0.00   13.21   0.136   0.000   0.136 
 2020 130    21  17.70  15.10   2.30   1.532   1.847   0.000   1.847   0.208   0.000   0.200   0.000   0.009   46.05   15.68    0.00    2.46    0.00   13.21   0.136   0.000   0.136 
 2020 131    22  25.40  12.30  -2.30   1.732   2.086   0.000   2.086   0.235   0.000   0.233   0.000   0.002   48.13   15.91    0.00    2.70    0.00   13.22   0.136   0.000   0.136 
 2020 132    23   4.70   4.70   1.40   0.449   0.534   0.000   0.534   0.060   0.000   0.060   0.000   0.000   48.67   15.97    0.00    2.76    0.00   13.22   0.134   0.000   0.134 
 2020 133    24   6.80   8.00   2.10   0.729   0.869   0.000   0.869   0.098   0.000   0.098   0.000   0.000   49.54   16.07    0.00    2.85    0.00   13.22   0.134   0.000   0.134 
 2020 134    25  11.40  14.60   5.90   1.294   1.547   0.000   1.547   0.174   0.000   0.174   0.000   0.000   51.08   16.24    0.00    3.03    0.00   13.22   0.135   0.000   0.135 
 2020 135    26  25.60  23.70   4.80   2.191   2.641   0.000   2.641   0.298   0.000   0.298   0.000   0.000   53.72   16.54    0.00    3.33    0.00   13.22   0.136   0.000   0.136 
 2020 136    27  12.70  19.60   8.30   1.477   1.773   0.000   1.773   0.200   0.000   0.200   0.000   0.000   55.50   16.74    0.00    3.53    0.00   13.22   0.135   0.000   0.135 
 2020 137    28  17.90  20.00   9.70   1.872   2.245   0.000   2.245   1.992   0.000   0.000   0.000   1.992   57.74   18.73    0.00    3.53    0.00   15.21   1.064   0.000   1.064 
 2020 138    29  22.10  17.50   5.00   1.963   2.358   0.000   2.358   1.218   0.000   0.000   0.000   1.218   60.10   19.95    0.00    3.53    0.00   16.43   0.620   0.000   0.620 
 2020 139    30  26.10  20.80   2.50   2.161   2.603   0.000   2.603   0.293   0.000   0.059   0.000   0.234   62.70   20.25    0.00    3.59    0.00   16.66   0.136   0.000   0.136 
 2020 140    31  27.80  23.80   7.20   2.517   3.029   0.000   3.029   0.341   0.000   0.296   0.000   0.045   65.73   20.59    0.00    3.88    0.00   16.70   0.136   0.000   0.136 
 2020 141    32  27.70  24.10  11.50   4.231   5.083   0.006   5.077   0.578   0.006   0.563   0.000   0.009   70.81   21.16    0.01    4.45    0.00   16.71   0.137   0.001   0.135 
 2020 142    33   6.60  17.10  13.20   1.255   1.486   0.003   1.483   0.170   0.003   0.165   0.000   0.002   72.30   21.34    0.01    4.61    0.00   16.72   0.136   0.003   0.133 
 2020 143    34  14.50  20.80  13.00   2.562   3.055   0.009   3.046   1.545   0.009   0.000   0.000   1.535   75.36   22.88    0.02    4.61    0.00   18.25   0.603   0.004   0.599 
 2020 144    35  21.80  23.90   9.20   3.412   4.103   0.017   4.087   0.542   0.017   0.000   0.000   0.526   79.46   23.42    0.04    4.61    0.00   18.78   0.159   0.005   0.154 
 2020 145    36  16.60  21.60  10.30   2.754   3.305   0.017   3.288   2.651   0.017   0.000   0.000   2.634   82.76   26.07    0.05    4.61    0.00   21.41   0.962   0.006   0.956 
 2020 146    37  17.30  18.00   5.40   2.572   3.094   0.019   3.075   0.526   0.019   0.000   0.000   0.507   85.86   26.60    0.07    4.61    0.00   21.92   0.205   0.008   0.197 
 2020 147    38  28.10  23.90   3.60   3.786   4.578   0.031   4.547   2.880   0.031   0.000   0.000   2.848   90.44   29.48    0.10    4.61    0.00   24.76   0.761   0.008   0.752 
 2020 148    39  29.20  26.90   6.20   4.132   4.998   0.037   4.961   0.596   0.037   0.011   0.000   0.548   95.43   30.07    0.14    4.62    0.00   25.31   0.144   0.009   0.135 
 2020 149    40  24.90  24.90   9.20   3.778   4.562   0.042   4.521   0.551   0.042   0.404   0.000   0.105  100.00   30.63    0.18    5.03    0.00   25.42   0.146   0.011   0.135 
 2020 150    41  27.50  25.70   9.80   4.138   4.998   0.054   4.944   0.611   0.054   0.537   0.000   0.020  104.99   31.24    0.24    5.56    0.00   25.44   0.148   0.013   0.135 
 2020 151    42  26.80  24.70  14.60   4.332   5.198   0.087   5.111   0.663   0.087   0.572   0.000   0.004  110.19   31.90    0.32    6.13    0.00   25.44   0.153   0.020   0.133 
 2020 152    43  25.40  31.10  12.10   4.176   5.064   0.120   4.944   0.734   0.120   0.000   0.000   0.615  115.26   32.63    0.44    6.13    0.00   26.06   0.176   0.029   0.147 
 2020 153    44  25.40  34.50  18.80   4.394   5.340   0.178   5.162   0.760   0.178   0.463   0.000   0.118  120.60   33.39    0.62    6.60    0.00   26.17   0.173   0.041   0.132 
 2020 154    45  24.10  35.00  14.00   4.071   4.954   0.237   4.717   0.768   0.237   0.509   0.000   0.023  125.55   34.16    0.86    7.11    0.00   26.20   0.189   0.058   0.131 
 2020 155    46  25.40  30.80  12.20   4.168   5.072   0.315   4.756   0.851   0.315   0.532   0.000   0.004  130.62   35.01    1.17    7.64    0.00   26.20   0.204   0.076   0.129 
 2020 156    47  26.60  35.00  11.10   4.231   5.159   0.386   4.773   0.924   0.386   0.537   0.000   0.001  135.78   35.94    1.56    8.18    0.00   26.20   0.218   0.091   0.127 
 2020 157    48  29.10  32.70  14.30   4.764   5.815   0.543   5.272   1.137   0.543   0.594   0.000   0.000  141.60   37.07    2.10    8.77    0.00   26.20   0.239   0.114   0.125 
 2020 158    49  21.60  34.00  22.10   4.125   5.002   0.571   4.431   1.071   0.571   0.499   0.000   0.000  146.60   38.14    2.67    9.27    0.00   26.20   0.260   0.138   0.121 
 2020 159    50  27.40  34.10  24.00   5.082   6.172   0.867   5.305   1.865   0.867   0.000   0.000   0.998  152.77   40.01    3.54    9.27    0.00   27.20   0.367   0.171   0.196 
 2020 160    51  25.30  31.10  18.10   4.537   5.474   0.941   4.533   1.452   0.941   0.319   0.000   0.192  158.24   41.46    4.48    9.59    0.00   27.39   0.320   0.207   0.113 
 2020 161    52   4.10  18.00  11.40   0.786   0.920   0.188   0.733   0.838   0.188   0.000   0.000   0.650  159.16   42.30    4.67    9.59    0.00   28.04   1.066   0.239   0.827 
 2020 162    53  29.40  24.70   8.30   4.263   5.227   1.060   4.167   3.517   1.060   0.000   0.000   2.457  164.39   45.82    5.73    9.59    0.00   30.50   0.825   0.249   0.576 
 2020 163    54  29.20  29.80   6.00   4.213   5.171   1.125   4.046   1.597   1.125   0.000   0.000   0.473  169.56   47.41    6.85    9.59    0.00   30.97   0.379   0.267   0.112 
 2020 164    55  29.30  32.60  10.30   4.502   5.531   1.317   4.214   1.745   1.317   0.337   0.000   0.091  175.09   49.16    8.17    9.93    0.00   31.06   0.388   0.293   0.095 
 2020 165    56  28.60  31.60  12.90   4.594   5.648   1.497   4.152   1.965   1.497   0.450   0.000   0.017  180.74   51.12    9.67   10.38    0.00   31.08   0.428   0.326   0.102 
 2020 166    57  22.60  35.90  21.20   4.128   5.081   1.490   3.591   1.894   1.490   0.401   0.000   0.003  185.82   53.02   11.16   10.78    0.00   31.08   0.459   0.361   0.098 
 2020 167    58  26.60  35.30  20.60   4.579   5.641   1.872   3.770   2.297   1.872   0.424   0.000   0.001  191.46   55.31   13.03   11.20    0.00   31.08   0.502   0.409   0.093 
 2020 168    59  28.10  34.70  19.30   4.824   5.951   2.206   3.745   2.628   2.206   0.422   0.000   0.000  197.41   57.94   15.23   11.62    0.00   31.08   0.545   0.457   0.087 
 2020 169    60  27.00  35.90  20.10   4.800   5.927   2.423   3.504   2.818   2.423   0.395   0.000   0.000  203.34   60.76   17.66   12.02    0.00   31.08   0.587   0.505   0.082 
 2020 170    61  19.10  24.90  15.40   3.320   4.024   1.843   2.182   2.088   1.843   0.246   0.000   0.000  207.37   62.85   19.50   12.26    0.00   31.08   0.629   0.555   0.074 
 2020 171    62  15.10  23.20  13.60   2.714   3.240   1.577   1.663   1.764   1.577   0.187   0.000   0.000  210.61   64.61   21.08   12.45    0.00   31.08   0.650   0.581   0.069 
 2020 172    63  24.10  29.10  11.70   3.940   4.853   2.346   2.507   4.111   2.346   0.000   0.000   1.765  215.46   68.72   23.42   12.45    0.00   32.85   1.043   0.595   0.448 
 2020 173    64  20.70  30.70  15.90   3.703   4.533   2.259   2.274   2.599   2.259   0.000   0.000   0.339  219.99   71.32   25.68   12.45    0.00   33.19   0.702   0.610   0.092 
 2020 174    65  25.10  28.20  11.70   4.044   4.977   2.550   2.426   2.824   2.550   0.208   0.000   0.065  224.97   74.15   28.23   12.66    0.00   33.25   0.698   0.631   0.068 
 2020 175    66  25.60  28.40   8.80   3.963   4.909   2.545   2.364   4.323   2.545   0.000   0.000   1.778  229.88   78.47   30.78   12.66    0.00   35.03   1.091   0.642   0.449 
 2020 176    67  27.90  32.10  14.80   4.648   5.741   3.012   2.730   3.354   3.012   0.000   0.000   0.342  235.62   81.82   33.79   12.66    0.00   35.37   0.722   0.648   0.074 
 2020 177    68  22.50  34.80  18.10   4.089   5.054   2.691   2.363   2.958   2.691   0.201   0.000   0.066  240.67   84.78   36.48   12.86    0.00   35.44   0.723   0.658   0.065 
 2020 178    69  27.30  30.10  18.60   4.817   5.807   3.229   2.578   4.623   3.229   0.000   0.000   1.394  246.48   89.40   39.71   12.86    0.00   36.83   0.960   0.670   0.289 
 2020 179    70  26.70  33.00  17.10   4.654   5.722   3.155   2.568   3.653   3.155   0.000   0.000   0.498  252.20   93.06   42.87   12.86    0.00   37.33   0.785   0.678   0.107 
 2020 180    71  27.30  35.30  17.60   4.778   5.917   3.423   2.495   3.704   3.423   0.185   0.000   0.096  258.12   96.76   46.29   13.04    0.00   37.43   0.775   0.716   0.059 
 2020 181    72  26.30  35.80  22.00   4.981   6.077   3.636   2.441   3.911   3.636   0.257   0.000   0.018  264.20  100.67   49.92   13.30    0.00   37.45   0.785   0.730   0.055 
 2020 182    73  25.40  28.30   9.70   3.975   4.934   2.914   2.020   3.142   2.914   0.224   0.000   0.004  269.13  103.81   52.84   13.53    0.00   37.45   0.790   0.733   0.057 
 2020 183    74  29.10  31.80   7.80   4.297   5.333   3.115   2.218   3.365   3.115   0.249   0.000   0.001  274.46  107.18   55.95   13.77    0.00   37.45   0.783   0.725   0.058 
 2020 184    75  20.20  33.30  16.00   3.703   4.558   2.650   1.908   2.865   2.650   0.215   0.000   0.000  279.02  110.04   58.60   13.99    0.00   37.45   0.774   0.716   0.058 
 2020 185    76  28.10  32.90  17.30   4.768   5.895   3.376   2.519   3.659   3.376   0.284   0.000   0.000  284.92  113.70   61.98   14.27    0.00   37.45   0.767   0.708   0.060 
 2020 186    77  28.00  32.60  16.20   4.796   5.894   3.357   2.538   3.643   3.357   0.286   0.000   0.000  290.81  117.35   65.33   14.56    0.00   37.45   0.759   0.700   0.060 
 2020 187    78  23.60  32.70  17.90   4.240   5.192   2.929   2.263   3.184   2.929   0.255   0.000   0.000  296.00  120.53   68.26   14.81    0.00   37.45   0.751   0.691   0.060 
 2020 188    79  27.10  33.80  19.40   4.839   5.928   3.299   2.629   3.595   3.299   0.296   0.000   0.000  301.93  124.12   71.56   15.11    0.00   37.45   0.743   0.682   0.061 
 2020 189    80  27.50  35.30  20.60   5.005   6.149   3.368   2.781   3.681   3.368   0.313   0.000   0.000  308.08  127.81   74.93   15.42    0.00   37.45   0.735   0.673   0.063 
 2020 190    81  25.90  35.50  19.50   4.628   5.730   3.074   2.656   3.373   3.074   0.299   0.000   0.000  313.81  131.18   78.00   15.72    0.00   37.45   0.729   0.664   0.065 
 2020 191    82  27.00  30.50  14.20   4.444   5.470   2.912   2.558   5.182   2.912   0.000   0.000   2.270  319.28  136.36   80.92   15.72    0.00   39.72   1.166   0.655   0.511 
 2020 192    83  25.60  32.20  17.20   4.530   5.527   2.920   2.606   3.914   2.920   0.000   0.000   0.994  324.81  140.28   83.84   15.72    0.00   40.71   0.864   0.645   0.219 
 2020 193    84  26.10  29.10  16.50   4.424   5.370   2.810   2.561   3.098   2.810   0.097   0.000   0.191  330.18  143.37   86.65   15.82    0.00   40.91   0.700   0.635   0.065 
 2020 194    85  24.50  32.80  13.30   4.091   5.077   2.557   2.521   2.841   2.557   0.247   0.000   0.037  335.26  146.21   89.20   16.07    0.00   40.94   0.695   0.625   0.069 
 2020 195    86  23.10  35.00  18.60   4.206   5.181   2.589   2.592   2.881   2.589   0.285   0.000   0.007  340.44  149.10   91.79   16.35    0.00   40.95   0.685   0.616   0.069 
 2020 196    87  16.00  24.20  16.30   2.947   3.446   1.792   1.654   3.259   1.792   0.000   0.000   1.467  343.88  152.35   93.58   16.35    0.00   42.42   1.106   0.608   0.498 
 2020 197    88  23.30  26.00  19.70   4.164   4.872   2.490   2.382   4.132   2.490   0.000   0.000   1.642  348.75  156.49   96.07   16.35    0.00   44.06   0.992   0.598   0.394 
 2020 198    89  25.30  32.20  18.40   4.573   5.527   2.668   2.859   2.991   2.668   0.006   0.000   0.316  354.28  159.48   98.74   16.36    0.00   44.37   0.654   0.584   0.070 
 2020 199    90  27.60  35.10  21.40   5.062   6.167   2.882   3.285   3.252   2.882   0.309   0.000   0.061  360.45  162.73  101.63   16.67    0.00   44.44   0.642   0.569   0.073 
 2020 200    91  17.00  30.80  18.10   3.248   3.921   1.803   2.117   2.042   1.803   0.227   0.000   0.012  364.37  164.77  103.43   16.90    0.00   44.45   0.629   0.555   0.073 
 2020 201    92  23.80  30.80  16.10   4.111   5.012   2.225   2.788   2.539   2.225   0.312   0.000   0.002  369.38  167.31  105.65   17.21    0.00   44.45   0.618   0.541   0.076 
 2020 202    93  21.00  29.00  18.40   3.825   4.559   2.017   2.542   2.304   2.017   0.286   0.000   0.000  373.94  169.61  107.67   17.49    0.00   44.45   0.602   0.527   0.075 
 2020 203    94  26.60  28.30  13.20   4.269   5.206   2.193   3.013   2.532   2.193   0.109   0.000   0.230  379.15  172.15  109.86   17.60    0.00   44.68   0.593   0.514   0.080 
 2020 204    95  26.70  30.90  19.30   4.790   5.725   2.396   3.329   2.771   2.396   0.331   0.000   0.044  384.87  174.92  112.26   17.93    0.00   44.72   0.579   0.500   0.078 
 2020 205    96  19.30  32.40  21.20   3.758   4.510   1.830   2.680   2.132   1.830   0.293   0.000   0.009  389.38  177.05  114.09   18.23    0.00   44.73   0.567   0.487   0.080 
 2020 206    97  23.00  34.90  20.80   4.336   5.271   2.056   3.215   2.418   2.056   0.361   0.000   0.002  394.65  179.47  116.15   18.59    0.00   44.73   0.558   0.474   0.084 
 2020 207    98  27.20  33.90  20.00   4.883   5.924   2.253   3.671   5.080   2.253   0.000   0.000   2.827  400.58  184.55  118.40   18.59    0.00   47.56   1.040   0.461   0.579 
 2020 208    99   7.90  24.50  19.80   1.728   1.923   0.776   1.147   1.321   0.776   0.000   0.000   0.545  402.50  185.87  119.17   18.59    0.00   48.11   0.764   0.449   0.315 
 2020 209   100  22.60  27.60  18.80   4.044   4.749   1.766   2.983   2.102   1.766   0.231   0.000   0.105  407.25  187.97  120.94   18.82    0.00   48.21   0.520   0.437   0.083 
 2020 210   101  26.30  29.90  19.10   4.615   5.515   1.959   3.556   2.360   1.959   0.381   0.000   0.020  412.76  190.33  122.90   19.20    0.00   48.23   0.511   0.424   0.087 
 2020 211   102  25.40  31.00  17.40   4.366   5.288   1.802   3.486   2.195   1.802   0.389   0.000   0.004  418.05  192.53  124.70   19.59    0.00   48.23   0.503   0.413   0.090 
 2020 212   103  11.60  24.00  15.00   2.248   2.624   0.901   1.722   2.429   0.901   0.000   0.000   1.528  420.68  194.95  125.60   19.59    0.00   49.76   1.081   0.401   0.680 
 2020 213   104  24.90  27.90  11.70   3.898   4.760   1.519   3.241   3.115   1.519   0.000   0.000   1.596  425.44  198.07  127.12   19.59    0.00   51.36   0.799   0.390   0.409 
 2020 214   105  25.50  27.40  17.30   4.287   5.102   1.623   3.480   2.015   1.623   0.085   0.000   0.307  430.54  200.08  128.75   19.67    0.00   51.67   0.470   0.379   0.091 
 2020 215   106  26.80  24.20  11.60   4.002   4.836   1.472   3.364   3.449   1.472   0.000   0.000   1.978  435.37  203.53  130.22   19.67    0.00   53.64   0.862   0.368   0.494 
 2020 216   107  21.30  24.40  11.30   3.333   4.022   1.190   2.833   1.570   1.190   0.000   0.000   0.380  439.40  205.10  131.41   19.67    0.00   54.02   0.471   0.357   0.114 
 2020 217   108  17.00  23.10  15.40   2.950   3.445   1.022   2.423   1.295   1.022   0.200   0.000   0.073  442.84  206.40  132.43   19.87    0.00   54.10   0.439   0.347   0.093 
 2020 218   109  25.70  29.60  14.30   4.151   5.049   1.396   3.653   1.808   1.396   0.398   0.000   0.014  447.89  208.21  133.83   20.27    0.00   54.11   0.436   0.336   0.099 
 2020 219   110  23.40  30.10  16.60   3.985   4.808   1.301   3.507   1.696   1.301   0.393   0.000   0.003  452.70  209.90  135.13   20.66    0.00   54.11   0.426   0.326   0.099 
 2020 220   111  23.90  33.90  20.00   4.257   5.183   1.348   3.835   1.780   1.348   0.432   0.000   0.001  457.88  211.68  136.47   21.10    0.00   54.11   0.418   0.317   0.102 
 2020 221   112  20.10  32.60  16.00   3.510   4.290   1.078   3.212   1.440   1.078   0.362   0.000   0.000  462.17  213.12  137.55   21.46    0.00   54.11   0.410   0.307   0.103 
 2020 222   113  24.70  34.50  14.00   3.967   4.924   1.182   3.742   2.947   1.182   0.000   0.000   1.765  467.09  216.07  138.73   21.46    0.00   55.88   0.743   0.298   0.445 
 2020 223   114  24.80  27.10  16.90   4.058   4.842   1.173   3.670   1.586   1.173   0.074   0.000   0.339  471.94  217.66  139.91   21.53    0.00   56.22   0.391   0.289   0.102 
 2020 224   115  22.40  32.00  15.10   3.712   4.556   1.040   3.516   1.436   1.040   0.331   0.000   0.065  476.49  219.09  140.95   21.86    0.00   56.28   0.387   0.280   0.107 
 2020 225   116  23.20  31.90  17.60   3.874   4.736   1.053   3.684   1.468   1.053   0.403   0.000   0.013  481.23  220.56  142.00   22.26    0.00   56.30   0.379   0.272   0.107 
 2020 226   117  25.00  33.20  19.70   4.362   5.279   1.149   4.130   1.615   1.149   0.463   0.000   0.002  486.51  222.18  143.15   22.73    0.00   56.30   0.370   0.264   0.107 
 2020 227   118  24.40  28.10  14.90   3.876   4.688   0.990   3.698   1.407   0.990   0.416   0.000   0.000  491.20  223.58  144.14   23.14    0.00   56.30   0.363   0.255   0.107 
 2020 228   119  20.20  28.30  10.80   3.106   3.835   0.769   3.065   1.115   0.769   0.345   0.000   0.000  495.03  224.70  144.91   23.49    0.00   56.30   0.359   0.248   0.111 
 2020 229   120  19.00  33.60  15.60   3.209   3.969   0.771   3.199   1.131   0.771   0.360   0.000   0.000  499.00  225.83  145.68   23.85    0.00   56.30   0.352   0.240   0.112 
 2020 230   121  24.40  31.50  10.60   3.572   4.433   0.831   3.602   1.237   0.831   0.406   0.000   0.000  503.43  227.07  146.51   24.26    0.00   56.30   0.346   0.233   0.114 
 2020 231   122  22.80  33.50  17.60   3.677   4.556   0.830   3.727   1.250   0.830   0.420   0.000   0.000  507.99  228.32  147.34   24.68    0.00   56.30   0.340   0.226   0.114 
 2020 232   123  17.50  30.30  18.60   3.058   3.714   0.669   3.045   1.012   0.669   0.343   0.000   0.000  511.70  229.33  148.01   25.02    0.00   56.30   0.331   0.219   0.112 
 2020 233   124  19.70  33.20  17.50   3.319   4.084   0.704   3.380   1.084   0.704   0.381   0.000   0.000  515.79  230.41  148.71   25.40    0.00   56.30   0.327   0.212   0.115 
 2020 234   125  21.30  33.20  17.40   3.496   4.308   0.719   3.589   0.977   0.719   0.258   0.000   0.000  520.09  231.39  149.43   25.66    0.00   56.30   0.279   0.206   0.074 
 2020 235   126  20.80  34.80  15.60   3.369   4.181   0.671   3.510   1.067   0.671   0.395   0.000   0.000  524.28  232.46  150.10   26.05    0.00   56.30   0.317   0.199   0.117 
 2020 236   127  21.50  35.50  15.90   3.444   4.274   0.665   3.609   1.072   0.665   0.407   0.000   0.000  528.55  233.53  150.77   26.46    0.00   56.30   0.311   0.193   0.118 
 2020 237   128  20.60  35.90  20.00   3.425   4.252   0.642   3.610   1.048   0.642   0.407   0.000   0.000  532.80  234.58  151.41   26.87    0.00   56.30   0.306   0.187   0.119 
 2020 238   129  21.30  36.20  18.90   3.467   4.303   0.630   3.674   1.044   0.630   0.414   0.000   0.000  537.11  235.62  152.04   27.28    0.00   56.30   0.301   0.182   0.119 
 2020 239   130  21.50  35.40  19.60   3.436   4.265   0.606   3.659   1.018   0.606   0.412   0.000   0.000  541.37  236.64  152.65   27.69    0.00   56.30   0.296   0.176   0.120 
 2020 240   131  20.40  35.60  17.00   3.237   4.018   0.554   3.464   0.944   0.554   0.390   0.000   0.000  545.39  237.58  153.20   28.08    0.00   56.30   0.292   0.171   0.121 
 2020 241   132  19.00  29.30  16.00   3.045   3.709   0.506   3.204   0.867   0.506   0.361   0.000   0.000  549.10  238.45  153.70   28.44    0.00   56.30   0.285   0.166   0.119 
 2020 242   133  21.60  27.50   8.90   2.948   3.658   0.475   3.183   0.834   0.475   0.359   0.000   0.000  552.75  239.28  154.18   28.80    0.00   56.30   0.283   0.161   0.122 
 2020 243   134  20.80  33.70  17.70   3.344   4.125   0.523   3.602   0.929   0.523   0.406   0.000   0.000  556.88  240.21  154.70   29.21    0.00   56.30   0.278   0.156   0.121 
 2020 244   135  22.40  22.90  12.10   2.899   3.581   0.440   3.141   0.794   0.440   0.354   0.000   0.000  560.46  241.01  155.14   29.56    0.00   56.30   0.274   0.152   0.122 
 2020 245   136  21.70  28.50  10.10   2.895   3.593   0.427   3.166   0.784   0.427   0.357   0.000   0.000  564.05  241.79  155.57   29.92    0.00   56.30   0.271   0.147   0.123 
 2020 246   137  22.70  31.20   6.30   2.835   3.519   0.406   3.113   0.757   0.406   0.351   0.000   0.000  567.57  242.55  155.98   30.27    0.00   56.30   0.267   0.143   0.124 
 2020 247   138  21.90  26.30  14.90   3.000   3.698   0.417   3.280   0.787   0.417   0.370   0.000   0.000  571.27  243.33  156.39   30.64    0.00   56.30   0.262   0.139   0.123 
 2020 248   139  21.80  31.90  14.00   3.020   3.749   0.408   3.341   0.784   0.408   0.376   0.000   0.000  575.02  244.12  156.80   31.02    0.00   56.30   0.260   0.135   0.125 
 2020 249   140  21.10  37.50  10.40   2.845   3.531   0.373   3.158   0.729   0.373   0.356   0.000   0.000  578.55  244.85  157.17   31.37    0.00   56.30   0.256   0.131   0.125 
 2020 250   141  20.10  33.80  14.40   2.782   3.453   0.355   3.098   0.704   0.355   0.349   0.000   0.000  582.00  245.55  157.53   31.72    0.00   56.30   0.253   0.127   0.126 
 2020 251   142  17.90  23.20   7.70   2.359   2.900   0.292   2.607   0.586   0.292   0.294   0.000   0.000  584.90  246.14  157.82   32.02    0.00   56.30   0.248   0.124   0.125 
 2020 252   143   2.40   7.40   3.30   0.326   0.368   0.039   0.328   0.076   0.039   0.037   0.000   0.000  585.27  246.21  157.86   32.05    0.00   56.30   0.234   0.120   0.113 
 2020 253   144   7.10   7.70   2.10   1.041   1.197   0.117   1.081   1.075   0.117   0.000   0.000   0.959  586.47  247.29  157.98   32.05    0.00   57.26   1.033   0.112   0.921 
 2020 254   145  17.40  15.50   2.10   1.946   2.366   0.186   2.180   2.120   0.186   0.000   0.000   1.934  588.83  249.41  158.16   32.05    0.00   59.19   1.089   0.096   0.994 
 2020 255   146   9.10  19.00   9.30   1.500   1.786   0.122   1.663   0.613   0.122   0.000   0.000   0.490  590.62  250.02  158.29   32.05    0.00   59.68   0.408   0.082   0.327 
 2020 256   147  19.60  23.70   6.50   2.374   2.930   0.188   2.741   2.048   0.188   0.000   0.000   1.859  593.55  252.07  158.47   32.05    0.00   61.54   0.863   0.079   0.783 
 2020 257   148  21.40  30.30   7.00   2.506   3.111   0.193   2.917   0.551   0.193   0.000   0.000   0.358  596.66  252.62  158.67   32.05    0.00   61.90   0.220   0.077   0.143 
 2020 258   149  16.60  28.70   6.60   2.134   2.649   0.160   2.489   0.441   0.160   0.212   0.000   0.069  599.31  253.06  158.83   32.26    0.00   61.97   0.206   0.075   0.131 
 2020 259   150  16.90  30.30  11.50   2.312   2.870   0.169   2.701   0.473   0.169   0.291   0.000   0.013  602.18  253.53  159.00   32.56    0.00   61.98   0.205   0.073   0.132 
 2020 260   151  16.20  21.80   8.30   2.070   2.518   0.147   2.371   0.414   0.147   0.265   0.000   0.003  604.70  253.95  159.14   32.82    0.00   61.98   0.200   0.071   0.129 
 2020 261   152  16.40  25.70   3.80   1.965   2.439   0.135   2.304   0.395   0.135   0.259   0.000   0.000  607.14  254.34  159.28   33.08    0.00   61.99   0.201   0.069   0.132 
 2020 262   153  16.60  26.90  10.00   2.196   2.701   0.144   2.557   0.432   0.144   0.288   0.000   0.000  609.84  254.77  159.42   33.37    0.00   61.99   0.197   0.066   0.131 
 2020 263   154  15.30  28.80  11.80   2.132   2.642   0.136   2.506   0.419   0.136   0.282   0.000   0.000  612.48  255.19  159.56   33.65    0.00   61.99   0.196   0.064   0.132 
 2020 264   155  15.90  28.20  15.00   2.200   2.701   0.137   2.564   0.426   0.137   0.289   0.000   0.000  615.18  255.62  159.69   33.94    0.00   61.99   0.193   0.062   0.131 
 2020 265   156  15.10  28.90  14.10   2.115   2.602   0.131   2.471   0.410   0.131   0.278   0.000   0.000  617.78  256.03  159.83   34.22    0.00   61.99   0.194   0.062   0.132 
 2020 266   157  17.40  30.40  10.80   2.125   2.638   0.132   2.506   0.899   0.132   0.000   0.000   0.767  620.42  256.93  159.96   34.22    0.00   62.75   0.423   0.062   0.361 
 2020 267   158  17.20  33.00   8.70   1.992   2.473   0.124   2.349   0.388   0.124   0.117   0.000   0.148  622.89  257.32  160.08   34.33    0.00   62.90   0.195   0.062   0.133 
 2020 268   159  16.60  31.40   6.70   1.878   2.331   0.117   2.215   0.366   0.117   0.221   0.000   0.028  625.22  257.68  160.20   34.56    0.00   62.93   0.195   0.062   0.133 
