*Soil Organic Matter daily output file

*DSSAT Cropping System Model Ver. 4.8.2.000 -release  MAY 26, 2025 18:07:50

*RUN   1        : farm_23                   MZCER048 UNLI2309    1
 MODEL          : MZCER048 - Maize
 EXPERIMENT     : UNLI2309 MZ PIO1366
 DATA PATH      :
 TREATMENT  1   : farm_23                   MZCER048
  
@YEAR DOY   DAS    OMAC    SCDD    SOCD    SC0D    SCTD   SOMCT    LCTD    ONAC    SNDD    SOND    SN0D    SNTD   SOMNT    LNTD
 2020 109     0       0   12180  128816    2000  126816  126816     0.0    0.00  1218.0 12681.6    0.00 12681.6 12681.6    0.00
 2020 110     1    5000   12180  130816    4000  126816  126816     0.0   55.00  1218.0 12736.6   55.00 12681.6 12681.6    0.00
 2020 111     2    5000   12180  130815    4000  126815  126815     0.0   55.00  1218.0 12736.5   55.00 12681.5 12681.5    0.00
 2020 112     3    5000   12180  130814    4000  126814  126814     0.0   55.00  1218.0 12736.4   55.00 12681.4 12681.4    0.00
 2020 113     4    5000   12180  130814    4000  126814  126814     0.0   55.00  1218.0 12736.4   55.00 12681.4 12681.4    0.00
 2020 114     5    5000   12179  130813    4000  126813  126813     0.0   55.00  1217.9 12736.3   55.00 12681.3 12681.3    0.00
 2020 115     6    5000   12179  130811    4000  126811  126811     0.0   55.00  1217.9 12736.1   55.00 12681.1 12681.1    0.00
 2020 116     7    5000   12179  130810    4000  126810  126810     0.0   55.00  1217.9 12736.0   55.00 12681.0 12681.0    0.00
 2020 117     8    5000   12179  130808    4000  126808  126808     0.0   55.00  1217.9 12735.8   55.00 12680.8 12680.8    0.00
 2020 118     9    5000   12179  130807    4000  126807  126807     0.0   55.00  1217.9 12735.7   55.00 12680.7 12680.7    0.00
 2020 119    10    5000   12178  130805    4000  126805  126805     0.0   55.00  1217.8 12735.5   55.00 12680.5 12680.5    0.00
 2020 120    11    5000   12178  130803    4000  126803  126803     0.0   55.00  1217.8 12735.3   55.00 12680.3 12680.3    0.00
 2020 121    12    5000   12178  130801    4000  126801  126801     0.0   55.00  1217.8 12735.1   55.00 12680.1 12680.1    0.00
 2020 122    13    5000   12177  130799    4000  126799  126799     0.0   55.00  1217.7 12734.9   55.00 12679.9 12679.9    0.00
 2020 123    14    5000   12177  130796    4000  126796  126796     0.0   55.00  1217.7 12734.6   55.00 12679.6 12679.6    0.00
 2020 124    15    5000   12177  130793    4000  126793  126793     0.0   55.00  1217.7 12734.3   55.00 12679.3 12679.3    0.00
 2020 125    16    5000   12176  130791    4000  126791  126791     0.0   55.00  1217.6 12734.1   55.00 12679.1 12679.1    0.00
 2020 126    17    5000   12176  130788    4000  126788  126788     0.0   55.00  1217.6 12733.8   55.00 12678.8 12678.8    0.00
 2020 127    18    5000   12176  130786    4000  126786  126786     0.0   55.00  1217.6 12733.6   55.00 12678.6 12678.6    0.00
 2020 128    19    5000   12176  130785    4000  126785  126785     0.0   55.00  1217.6 12733.5   55.00 12678.5 12678.5    0.00
 2020 129    20    5000   12175  130783    4000  126783  126783     0.0   55.00  1217.5 12733.3   55.00 12678.3 12678.3    0.00
 2020 130    21    5000   12175  130782    4000  126782  126782     0.0   55.00  1217.5 12733.2   55.00 12678.2 12678.2    0.00
 2020 131    22    5000   12175  130781    4000  126781  126781     0.0   55.00  1217.5 12733.1   55.00 12678.1 12678.1    0.00
 2020 132    23    5000   12175  130780    4000  126780  126780     0.0   55.00  1217.5 12733.0   55.00 12678.0 12678.0    0.00
 2020 133    24    5000   12175  130780    4000  126780  126780     0.0   55.00  1217.5 12733.0   55.00 12678.0 12678.0    0.00
 2020 134    25    5000   12175  130779    4000  126779  126779     0.0   55.00  1217.5 12732.9   55.00 12677.9 12677.9    0.00
 2020 135    26    5000   12175  130779    4000  126779  126779     0.0   55.00  1217.5 12732.9   55.00 12677.9 12677.9    0.00
 2020 136    27    5000   12175  130779    4000  126779  126779     0.0   55.00  1217.5 12732.9   55.00 12677.9 12677.9    0.00
 2020 137    28    5000   12175  130778    4000  126778  126778     0.0   55.00  1217.5 12732.8   55.00 12677.8 12677.8    0.00
 2020 138    29    5000   12174  130776    4000  126776  126776     0.0   55.00  1217.4 12732.6   55.00 12677.6 12677.6    0.00
 2020 139    30    5000   12174  130775    4000  126775  126775     0.0   55.00  1217.4 12732.5   55.00 12677.5 12677.5    0.00
 2020 140    31    5000   12174  130773    4000  126773  126773     0.0   55.00  1217.4 12732.3   55.00 12677.3 12677.3    0.00
 2020 141    32    5000   12173  130770    4000  126770  126770     0.0   55.00  1217.3 12732.0   55.00 12677.0 12677.0    0.00
 2020 142    33    5000   12173  130768    4000  126768  126768     0.0   55.00  1217.3 12731.8   55.00 12676.8 12676.8    0.00
 2020 143    34    5000   12173  130766    4000  126766  126766     0.0   55.00  1217.3 12731.6   55.00 12676.6 12676.6    0.00
 2020 144    35    5000   12173  130763    4000  126763  126763     0.0   55.00  1217.3 12731.3   55.00 12676.3 12676.3    0.00
 2020 145    36    5000   12172  130760    4000  126760  126760     0.0   55.00  1217.2 12731.0   55.00 12676.0 12676.0    0.00
 2020 146    37    5000   12172  130757    4000  126757  126757     0.0   55.00  1217.2 12730.7   55.00 12675.7 12675.7    0.00
 2020 147    38    5000   12171  130755    4000  126755  126755     0.0   55.00  1217.1 12730.5   55.00 12675.5 12675.5    0.00
 2020 148    39    5000   12171  130752    4000  126752  126752     0.0   55.00  1217.1 12730.2   55.00 12675.2 12675.2    0.00
 2020 149    40    5000   12171  130750    4000  126750  126750     0.0   55.00  1217.1 12730.0   55.00 12675.0 12675.0    0.00
 2020 150    41    5000   12170  130747    4000  126747  126747     0.0   55.00  1217.0 12729.7   55.00 12674.7 12674.7    0.00
 2020 151    42    5000   12170  130744    4000  126744  126744     0.0   55.00  1217.0 12729.4   55.00 12674.4 12674.4    0.00
 2020 152    43    5000   12170  130741    4000  126741  126741     0.1   55.00  1217.0 12729.1   55.00 12674.1 12674.1    0.00
 2020 153    44    5000   12169  130738    4000  126738  126738     0.1   55.00  1216.9 12728.8   55.00 12673.8 12673.8    0.00
 2020 154    45    5000   12169  130734    4000  126734  126733     0.2   55.00  1216.9 12728.3   55.00 12673.3 12673.3    0.01
 2020 155    46    5000   12168  130729    4000  126729  126729     0.3   55.00  1216.8 12727.9   55.00 12672.9 12672.9    0.01
 2020 156    47    5000   12168  130724    4000  126724  126724     0.4   55.00  1216.8 12727.4   55.00 12672.4 12672.4    0.01
 2020 157    48    5000   12167  130719    4000  126719  126719     0.6   55.00  1216.7 12726.9   55.00 12671.9 12671.9    0.02
 2020 158    49    5000   12166  130714    4000  126714  126714     0.7   55.00  1216.6 12726.4   55.00 12671.4 12671.4    0.02
 2020 159    50    5000   12166  130709    4000  126709  126708     0.9   55.00  1216.6 12725.9   55.00 12670.9 12670.8    0.03
 2020 160    51    5000   12165  130704    4000  126704  126703     1.2   55.00  1216.5 12725.3   55.00 12670.3 12670.3    0.04
 2020 161    52    5000   12164  130699    4000  126699  126697     1.5   55.00  1216.4 12724.8   55.00 12669.8 12669.7    0.05
 2020 162    53    5000   12164  130693    4000  126693  126692     1.5   55.00  1216.4 12724.2   55.00 12669.2 12669.2    0.05
 2020 163    54    5000   12163  130689    4000  126689  126687     1.8   55.00  1216.3 12723.8   55.00 12668.8 12668.7    0.06
 2020 164    55    5000   12163  130685    4000  126685  126683     2.3   55.00  1216.3 12723.4   55.00 12668.4 12668.3    0.07
 2020 165    56    5000   12162  130682    4000  126682  126679     2.9   55.00  1216.2 12723.0   55.00 12668.0 12667.9    0.10
 2020 166    57    5000   12162  130679    4000  126679  126675     3.6   55.00  1216.2 12722.6   55.00 12667.6 12667.5    0.12
 2020 167    58    5000   12161  130675    4000  126675  126671     4.5   55.00  1216.1 12722.2   55.00 12667.2 12667.1    0.15
 2020 168    59    5000   12161  130671    4000  126671  126666     5.4   55.00  1216.1 12721.7   55.00 12666.7 12666.6    0.17
 2020 169    60    5000   12160  130666    4000  126666  126660     6.5   55.00  1216.0 12721.2   55.00 12666.2 12666.0    0.20
 2020 170    61    5000   12159  130661    4000  126661  126654     7.7   55.00  1215.9 12720.6   55.00 12665.6 12665.4    0.24
 2020 171    62    5000   12159  130657    4000  126657  126648     9.0   55.00  1215.9 12720.1   55.00 12665.1 12664.8    0.27
 2020 172    63    5000   12158  130653    4000  126653  126643    10.3   55.00  1215.8 12719.6   55.00 12664.6 12664.3    0.31
 2020 173    64    5000   12157  130649    4000  126649  126638    11.8   55.00  1215.7 12719.1   55.00 12664.1 12663.8    0.34
 2020 174    65    5000   12157  130646    4000  126646  126633    13.4   55.00  1215.7 12718.7   55.00 12663.7 12663.3    0.37
 2020 175    66    5000   12156  130644    4000  126644  126629    15.1   55.00  1215.6 12718.3   55.00 12663.3 12662.9    0.41
 2020 176    67    5000   12156  130642    4000  126642  126625    16.9   55.00  1215.6 12717.9   55.00 12662.9 12662.5    0.44
 2020 177    68    5000   12155  130639    4000  126639  126620    18.9   55.00  1215.5 12717.5   55.00 12662.5 12662.0    0.48
 2020 178    69    5000   12155  130637    4000  126637  126616    20.9   55.00  1215.5 12717.1   55.00 12662.1 12661.6    0.52
 2020 179    70    5000   12154  130634    4000  126634  126611    22.9   55.00  1215.4 12716.7   55.00 12661.7 12661.1    0.56
 2020 180    71    5000   12154  130632    4000  126632  126607    25.0   55.00  1215.4 12716.2   55.00 12661.2 12660.6    0.59
 2020 181    72    5000   12153  130629    4000  126629  126602    27.0   55.00  1215.3 12715.7   55.00 12660.7 12660.1    0.63
 2020 182    73    5000   12153  130625    4000  126625  126596    29.0   55.00  1215.3 12715.3   55.00 12660.3 12659.6    0.68
 2020 183    74    5000   12152  130623    4000  126623  126592    31.1   55.00  1215.2 12714.8   55.00 12659.8 12659.1    0.72
 2020 184    75    5000   12152  130620    4000  126620  126587    33.3   55.00  1215.2 12714.4   55.00 12659.4 12658.6    0.76
 2020 185    76    5000   12151  130618    4000  126618  126583    35.6   55.00  1215.1 12714.0   55.00 12659.0 12658.2    0.80
 2020 186    77    5000   12151  130616    4000  126616  126578    38.0   55.00  1215.1 12713.6   55.00 12658.6 12657.7    0.85
 2020 187    78    5000   12151  130615    4000  126615  126575    40.4   55.00  1215.1 12713.2   55.00 12658.2 12657.3    0.89
 2020 188    79    5000   12150  130613    4000  126613  126570    42.9   55.00  1215.0 12712.9   55.00 12657.9 12656.9    0.94
 2020 189    80    5000   12150  130611    4000  126611  126566    45.4   55.00  1215.0 12712.5   55.00 12657.5 12656.5    0.98
 2020 190    81    5000   12149  130610    4000  126610  126562    47.9   55.00  1214.9 12712.1   55.00 12657.1 12656.0    1.03
 2020 191    82    5000   12149  130608    4000  126608  126557    50.5   55.00  1214.9 12711.7   55.00 12656.7 12655.6    1.08
 2020 192    83    5000   12148  130606    4000  126606  126553    53.0   55.00  1214.8 12711.2   55.00 12656.2 12655.1    1.13
 2020 193    84    5000   12148  130604    4000  126604  126548    55.5   55.00  1214.8 12710.8   55.00 12655.8 12654.6    1.18
 2020 194    85    5000   12147  130602    4000  126602  126544    58.1   55.00  1214.7 12710.4   55.00 12655.4 12654.2    1.23
 2020 195    86    5000   12147  130601    4000  126601  126540    60.8   55.00  1214.6 12710.0   55.00 12655.0 12653.8    1.28
 2020 196    87    5000   12146  130599    4000  126599  126536    63.5   55.00  1214.6 12709.7   55.00 12654.7 12653.3    1.33
 2020 197    88    5000   12145  130597    4000  126597  126531    66.0   55.00  1214.5 12709.2   55.00 12654.2 12652.9    1.38
 2020 198    89    5000   12145  130595    4000  126595  126527    68.4   55.00  1214.5 12708.9   55.00 12653.9 12652.4    1.44
 2020 199    90    5000   12144  130593    4000  126593  126523    70.8   55.00  1214.4 12708.4   55.00 12653.4 12652.0    1.49
 2020 200    91    5000   12144  130591    4000  126591  126518    73.2   55.00  1214.3 12708.0   55.00 12653.0 12651.5    1.55
 2020 201    92    5000   12143  130589    4000  126589  126513    75.5   55.00  1214.3 12707.6   55.00 12652.6 12651.0    1.60
 2020 202    93    5000   12143  130587    4000  126587  126509    77.7   55.00  1214.2 12707.2   55.00 12652.2 12650.5    1.66
 2020 203    94    5000   12142  130584    4000  126584  126504    80.0   55.00  1214.1 12706.7   55.00 12651.7 12650.0    1.71
 2020 204    95    5000   12141  130582    4000  126582  126500    82.3   55.00  1214.1 12706.3   55.00 12651.3 12649.6    1.77
 2020 205    96    5000   12141  130580    4000  126580  126495    84.7   55.00  1214.0 12705.9   55.00 12650.9 12649.1    1.82
 2020 206    97    5000   12140  130578    4000  126578  126491    87.0   55.00  1214.0 12705.5   55.00 12650.5 12648.7    1.88
 2020 207    98    5000   12140  130576    4000  126576  126487    89.2   55.00  1213.9 12705.1   55.00 12650.1 12648.2    1.93
 2020 208    99    5000   12139  130573    4000  126573  126482    91.3   55.00  1213.8 12704.7   55.00 12649.7 12647.7    1.99
 2020 209   100    5000   12138  130570    4000  126570  126477    93.1   55.00  1213.8 12704.2   55.00 12649.2 12647.2    2.04
 2020 210   101    5000   12138  130567    4000  126567  126472    95.0   55.00  1213.7 12703.8   55.00 12648.8 12646.7    2.10
 2020 211   102    5000   12137  130565    4000  126565  126468    96.8   55.00  1213.6 12703.3   55.00 12648.3 12646.2    2.15
 2020 212   103    5000   12136  130562    4000  126562  126463    98.7   55.00  1213.6 12702.9   55.00 12647.9 12645.7    2.21
 2020 213   104    5000   12136  130559    4000  126559  126459   100.5   55.00  1213.5 12702.5   55.00 12647.5 12645.2    2.27
 2020 214   105    5000   12135  130556    4000  126556  126454   101.9   55.00  1213.5 12702.1   55.00 12647.1 12644.8    2.32
 2020 215   106    5000   12135  130553    4000  126553  126450   103.3   55.00  1213.4 12701.7   55.00 12646.7 12644.3    2.38
 2020 216   107    5000   12134  130551    4000  126551  126446   104.8   55.00  1213.3 12701.3   55.00 12646.3 12643.9    2.44
 2020 217   108    5000   12134  130549    4000  126549  126442   106.5   55.00  1213.3 12700.9   55.00 12645.9 12643.4    2.49
 2020 218   109    5000   12134  130547    4000  126547  126438   108.1   55.00  1213.3 12700.6   55.00 12645.6 12643.0    2.55
 2020 219   110    5000   12133  130544    4000  126544  126434   109.7   55.00  1213.2 12700.2   55.00 12645.2 12642.6    2.60
 2020 220   111    5000   12133  130542    4000  126542  126431   111.3   55.00  1213.2 12699.8   55.00 12644.8 12642.2    2.65
 2020 221   112    5000   12132  130539    4000  126539  126426   112.6   55.00  1213.1 12699.4   55.00 12644.4 12641.7    2.71
 2020 222   113    5000   12132  130535    4000  126535  126421   113.8   55.00  1213.0 12699.0   55.00 12644.0 12641.2    2.76
 2020 223   114    5000   12131  130531    4000  126531  126417   114.8   55.00  1213.0 12698.5   55.00 12643.5 12640.7    2.81
 2020 224   115    5000   12130  130527    4000  126527  126412   115.9   55.00  1212.9 12698.0   55.00 12643.0 12640.1    2.86
 2020 225   116    5000   12130  130524    4000  126524  126407   117.0   55.00  1212.9 12697.5   55.00 12642.5 12639.6    2.91
 2020 226   117    5000   12129  130520    4000  126520  126402   118.1   55.00  1212.8 12697.0   55.00 12642.0 12639.1    2.96
 2020 227   118    5000   12129  130516    4000  126516  126397   119.2   55.00  1212.7 12696.6   55.00 12641.6 12638.6    3.01
 2020 228   119    5000   12128  130512    4000  126512  126392   120.4   55.00  1212.7 12696.1   55.00 12641.1 12638.0    3.05
 2020 229   120    5000   12127  130509    4000  126509  126387   121.5   55.00  1212.6 12695.6   55.00 12640.6 12637.5    3.10
 2020 230   121    5000   12127  130505    4000  126505  126382   122.6   55.00  1212.6 12695.2   55.00 12640.2 12637.0    3.15
 2020 231   122    5000   12126  130502    4000  126502  126378   123.8   55.00  1212.5 12694.7   55.00 12639.7 12636.5    3.20
 2020 232   123    5000   12126  130498    4000  126498  126373   125.0   55.00  1212.4 12694.3   55.00 12639.3 12636.0    3.25
 2020 233   124    5000   12125  130495    4000  126495  126368   126.1   55.00  1212.4 12693.8   55.00 12638.8 12635.5    3.30
 2020 234   125    5000   12125  130491    4000  126491  126363   127.1   55.00  1212.3 12693.3   55.00 12638.3 12635.0    3.34
 2020 235   126    5000   12124  130486    4000  126486  126358   128.1   55.00  1212.3 12692.8   55.00 12637.8 12634.4    3.39
 2020 236   127    5000   12124  130482    4000  126482  126353   129.0   55.00  1212.2 12692.3   55.00 12637.3 12633.9    3.43
 2020 237   128    5000   12123  130478    4000  126478  126348   129.8   55.00  1212.1 12691.8   55.00 12636.8 12633.3    3.48
 2020 238   129    5000   12122  130473    4000  126473  126343   130.6   55.00  1212.1 12691.3   55.00 12636.3 12632.8    3.52
 2020 239   130    5000   12122  130468    4000  126468  126337   131.3   55.00  1212.0 12690.7   55.00 12635.7 12632.2    3.57
 2020 240   131    5000   12121  130464    4000  126464  126332   132.0   55.00  1211.9 12690.2   55.00 12635.2 12631.6    3.61
 2020 241   132    5000   12121  130459    4000  126459  126326   132.7   55.00  1211.9 12689.6   55.00 12634.6 12631.0    3.65
 2020 242   133    5000   12120  130454    4000  126454  126321   133.4   55.00  1211.8 12689.1   55.00 12634.1 12630.4    3.70
 2020 243   134    5000   12119  130450    4000  126450  126316   134.3   55.00  1211.8 12688.6   55.00 12633.6 12629.9    3.74
 2020 244   135    5000   12119  130446    4000  126446  126311   135.2   55.00  1211.7 12688.2   55.00 12633.2 12629.4    3.78
 2020 245   136    5000   12118  130443    4000  126443  126307   136.4   55.00  1211.7 12687.7   55.00 12632.7 12628.9    3.83
 2020 246   137    5000   12118  130440    4000  126440  126303   137.7   55.00  1211.6 12687.4   55.00 12632.4 12628.5    3.87
 2020 247   138    5000   12118  130438    4000  126438  126299   139.0   55.00  1211.6 12687.0   55.00 12632.0 12628.1    3.92
 2020 248   139    5000   12117  130435    4000  126435  126295   140.3   55.00  1211.5 12686.6   55.00 12631.6 12627.7    3.97
 2020 249   140    5000   12117  130433    4000  126433  126291   141.6   55.00  1211.5 12686.3   55.00 12631.3 12627.2    4.02
 2020 250   141    5000   12117  130430    4000  126430  126287   142.7   55.00  1211.5 12685.9   55.00 12630.9 12626.8    4.06
 2020 251   142    5000   12116  130427    4000  126427  126283   143.7   55.00  1211.4 12685.5   55.00 12630.5 12626.4    4.11
 2020 252   143    5000   12116  130424    4000  126424  126279   144.8   55.00  1211.4 12685.1   55.00 12630.1 12625.9    4.15
 2020 253   144    5000   12115  130421    4000  126421  126275   146.1   55.00  1211.3 12684.7   55.00 12629.7 12625.5    4.20
 2020 254   145    5000   12115  130420    4000  126420  126272   147.8   55.00  1211.3 12684.5   55.00 12629.5 12625.2    4.25
 2020 255   146    5000   12115  130420    4000  126420  126270   149.7   55.00  1211.3 12684.3   55.00 12629.3 12625.0    4.31
 2020 256   147    5000   12115  130420    4000  126420  126269   151.9   55.00  1211.3 12684.2   55.00 12629.2 12624.8    4.36
 2020 257   148    5000   12115  130421    4000  126421  126267   154.1   55.00  1211.3 12684.1   55.00 12629.1 12624.6    4.42
 2020 258   149    5000   12114  130420    4000  126420  126265   155.9   55.00  1211.2 12683.9   55.00 12628.9 12624.4    4.47
 2020 259   150    5000   12114  130419    4000  126419  126262   157.3   55.00  1211.2 12683.6   55.00 12628.6 12624.1    4.52
 2020 260   151    5000   12114  130417    4000  126417  126258   158.4   55.00  1211.2 12683.3   55.00 12628.3 12623.7    4.57
 2020 261   152    5000   12113  130414    4000  126414  126255   159.5   55.00  1211.1 12683.0   55.00 12628.0 12623.4    4.62
 2020 262   153    5000   12113  130412    4000  126412  126252   160.5   55.00  1211.1 12682.7   55.00 12627.7 12623.0    4.66
 2020 263   154    5000   12113  130410    4000  126410  126248   161.5   55.00  1211.0 12682.3   55.00 12627.3 12622.6    4.71
 2020 264   155    5000   12112  130407    4000  126407  126245   162.5   55.00  1211.0 12682.0   55.00 12627.0 12622.2    4.76
 2020 265   156    5000   12112  130402    4000  126402  126241   160.4   55.00  1211.0 12681.6   55.00 12626.6 12621.9    4.74
 2020 266   157    5000   12112  130396    4000  126396  126237   158.2   55.00  1210.9 12681.2   55.00 12626.2 12621.5    4.72
 2020 267   158    5000   12111  130389    4000  126389  126233   155.9   55.00  1210.9 12680.7   55.00 12625.7 12621.0    4.69
 2020 268   159    5000   12111  130383    4000  126383  126229   153.7   55.00  1210.8 12680.2   55.00 12625.2 12620.6    4.67
