*SOIL TEMPERATURE OUTPUT FILE (DAILY)

*DSSAT Cropping System Model Ver. 4.8.2.000 -release  MAY 26, 2025 18:15:22

*RUN   1        : farm_23                   MZCER048 UNLI2309    1
 MODEL          : MZCER048 - Maize
 EXPERIMENT     : UNLI2309 MZ PIO1366
 DATA PATH      :
 TREATMENT  1   : farm_23                   MZCER048
  
! TAV  =    10.0
! TAMP =    26.6
!               Temperature (oC) by soil depth (cm):
!               Surface     0-5    5-15   15-23   23-31   31-46   46-61   61-91  91-106 106-122 122-183
@YEAR DOY   DAS    TS0D    TS1D    TS2D    TS3D    TS4D    TS5D    TS6D    TS7D    TS8D    TS9D    TS10
 2020 110     1     8.5     8.4     8.1     7.7     7.5     7.1     6.6     6.1     5.7     5.4     5.2
 2020 111     2     8.8     8.7     8.4     8.0     7.7     7.4     6.9     6.3     5.9     5.6     5.4
 2020 112     3     9.2     9.1     8.8     8.4     8.1     7.7     7.2     6.6     6.1     5.9     5.6
 2020 113     4    10.3    10.2     9.8     9.4     9.1     8.6     8.1     7.4     6.9     6.6     6.2
 2020 114     5    11.2    11.0    10.6    10.2     9.8     9.4     8.8     8.1     7.5     7.1     6.7
 2020 115     6    11.7    11.5    11.1    10.7    10.3     9.8     9.2     8.4     7.8     7.4     7.0
 2020 116     7    11.6    11.5    11.1    10.6    10.3     9.8     9.2     8.4     7.8     7.4     7.0
 2020 117     8    12.2    12.1    11.7    11.2    10.8    10.3     9.7     8.9     8.2     7.8     7.4
 2020 118     9    12.9    12.7    12.3    11.8    11.4    10.9    10.2     9.3     8.6     8.2     7.7
 2020 119    10    13.4    13.3    12.8    12.3    11.9    11.3    10.6     9.7     9.0     8.6     8.0
 2020 120    11    14.0    13.9    13.4    12.9    12.4    11.8    11.1    10.2     9.4     9.0     8.4
 2020 121    12    15.0    14.8    14.3    13.8    13.3    12.7    11.9    10.9    10.1     9.6     9.0
 2020 122    13    16.4    16.2    15.7    15.1    14.6    13.9    13.1    12.0    11.1    10.5     9.8
 2020 123    14    15.7    15.6    15.1    14.5    14.0    13.3    12.5    11.5    10.6    10.1     9.4
 2020 124    15    15.5    15.3    14.8    14.3    13.8    13.1    12.4    11.3    10.5     9.9     9.3
 2020 125    16    14.8    14.7    14.2    13.7    13.2    12.6    11.8    10.9    10.0     9.5     8.9
 2020 126    17    14.2    14.1    13.6    13.1    12.7    12.1    11.4    10.5     9.7     9.2     8.6
 2020 127    18    11.9    11.8    11.4    10.9    10.6    10.1     9.5     8.7     8.1     7.7     7.2
 2020 128    19    11.7    11.6    11.2    10.8    10.4     9.9     9.3     8.6     7.9     7.6     7.1
 2020 129    20    10.7    10.6    10.3     9.9     9.5     9.1     8.5     7.8     7.3     6.9     6.5
 2020 130    21    10.4    10.3    10.0     9.6     9.3     8.8     8.3     7.6     7.1     6.7     6.3
 2020 131    22     9.1     9.0     8.7     8.3     8.1     7.7     7.2     6.6     6.1     5.8     5.5
 2020 132    23     7.9     7.8     7.5     7.2     7.0     6.6     6.2     5.7     5.3     5.0     4.8
 2020 133    24     6.3     6.2     6.0     5.8     5.6     5.3     4.9     4.5     4.2     4.0     3.8
 2020 134    25     6.5     6.4     6.2     6.0     5.7     5.5     5.1     4.7     4.4     4.2     4.0
 2020 135    26     7.6     7.6     7.3     7.0     6.8     6.5     6.1     5.6     5.2     4.9     4.7
 2020 136    27     9.4     9.3     9.0     8.7     8.4     8.0     7.6     6.9     6.4     6.1     5.8
 2020 137    28    11.8    11.7    11.3    10.9    10.6    10.1     9.6     8.8     8.2     7.8     7.3
 2020 138    29    13.1    12.9    12.6    12.1    11.8    11.2    10.6     9.8     9.1     8.6     8.1
 2020 139    30    13.4    13.3    12.9    12.4    12.0    11.5    10.9    10.1     9.3     8.9     8.3
 2020 140    31    13.6    13.5    13.1    12.7    12.3    11.8    11.1    10.3     9.5     9.1     8.5
 2020 141    32    14.4    14.3    13.9    13.4    13.0    12.5    11.8    10.9    10.1     9.6     9.0
 2020 142    33    14.5    14.3    13.9    13.4    13.0    12.5    11.8    10.9    10.1     9.6     9.0
 2020 143    34    15.6    15.4    15.0    14.5    14.1    13.5    12.8    11.8    10.9    10.4     9.7
 2020 144    35    16.6    16.4    16.0    15.4    15.0    14.4    13.6    12.6    11.7    11.1    10.4
 2020 145    36    16.6    16.5    16.0    15.5    15.1    14.4    13.7    12.7    11.7    11.2    10.4
 2020 146    37    15.4    15.3    14.9    14.4    14.0    13.4    12.7    11.7    10.9    10.4     9.7
 2020 147    38    15.2    15.1    14.7    14.2    13.8    13.2    12.5    11.6    10.8    10.3     9.6
 2020 148    39    15.2    15.0    14.6    14.2    13.8    13.2    12.6    11.6    10.8    10.3     9.6
 2020 149    40    15.3    15.2    14.8    14.3    13.9    13.3    12.7    11.7    10.9    10.4     9.7
 2020 150    41    15.7    15.5    15.1    14.7    14.3    13.7    13.0    12.1    11.2    10.7    10.0
 2020 151    42    17.3    17.1    16.7    16.1    15.7    15.1    14.3    13.3    12.4    11.8    11.0
 2020 152    43    18.8    18.7    18.2    17.6    17.1    16.5    15.7    14.5    13.5    12.9    12.0
 2020 153    44    20.8    20.7    20.1    19.5    19.0    18.2    17.3    16.1    14.9    14.2    13.3
 2020 154    45    22.4    22.2    21.6    20.9    20.4    19.6    18.6    17.3    16.0    15.3    14.2
 2020 155    46    23.1    22.9    22.3    21.7    21.1    20.3    19.3    17.9    16.6    15.8    14.7
 2020 156    47    23.9    23.7    23.1    22.4    21.8    20.9    19.9    18.5    17.2    16.4    15.2
 2020 157    48    24.3    24.0    23.4    22.7    22.1    21.3    20.2    18.8    17.5    16.6    15.5
 2020 158    49    24.5    24.3    23.7    23.0    22.4    21.5    20.5    19.0    17.7    16.9    15.7
 2020 159    50    25.4    25.2    24.5    23.8    23.2    22.3    21.2    19.7    18.3    17.5    16.3
 2020 160    51    26.0    25.8    25.1    24.4    23.7    22.9    21.8    20.2    18.8    17.9    16.7
 2020 161    52    24.2    24.0    23.5    22.8    22.2    21.4    20.3    18.9    17.6    16.8    15.6
 2020 162    53    22.8    22.7    22.1    21.5    20.9    20.2    19.2    17.9    16.6    15.9    14.8
 2020 163    54    20.9    20.7    20.2    19.6    19.1    18.4    17.6    16.4    15.3    14.6    13.6
 2020 164    55    19.4    19.2    18.8    18.3    17.8    17.2    16.4    15.3    14.3    13.7    12.8
 2020 165    56    19.0    18.8    18.4    17.9    17.4    16.8    16.1    15.0    14.0    13.4    12.6
 2020 166    57    21.8    21.6    21.1    20.5    20.0    19.3    18.4    17.2    16.0    15.3    14.3
 2020 167    58    24.1    23.9    23.3    22.7    22.1    21.3    20.3    18.9    17.7    16.9    15.8
 2020 168    59    25.8    25.6    25.0    24.3    23.7    22.9    21.8    20.3    19.0    18.1    16.9
 2020 169    60    27.1    26.9    26.3    25.5    24.9    24.0    22.9    21.3    19.9    19.0    17.7
 2020 170    61    26.7    26.5    25.8    25.1    24.5    23.6    22.5    21.0    19.6    18.7    17.5
 2020 171    62    24.6    24.4    23.9    23.2    22.6    21.9    20.9    19.5    18.2    17.4    16.3
 2020 172    63    23.1    22.9    22.4    21.8    21.3    20.6    19.7    18.4    17.2    16.4    15.4
 2020 173    64    22.4    22.2    21.7    21.1    20.6    20.0    19.1    17.9    16.7    16.0    15.0
 2020 174    65    20.8    20.6    20.2    19.7    19.2    18.6    17.8    16.7    15.6    15.0    14.0
 2020 175    66    20.5    20.4    19.9    19.4    19.0    18.4    17.6    16.5    15.5    14.8    13.9
 2020 176    67    21.5    21.4    20.9    20.4    19.9    19.3    18.5    17.3    16.2    15.6    14.6
 2020 177    68    22.7    22.6    22.1    21.5    21.1    20.4    19.5    18.3    17.1    16.4    15.4
 2020 178    69    22.9    22.8    22.3    21.7    21.2    20.6    19.7    18.5    17.3    16.6    15.5
 2020 179    70    24.0    23.8    23.3    22.7    22.2    21.5    20.5    19.3    18.1    17.3    16.2
 2020 180    71    25.5    25.3    24.8    24.2    23.6    22.8    21.9    20.5    19.2    18.3    17.2
 2020 181    72    26.6    26.4    25.8    25.2    24.6    23.8    22.8    21.3    20.0    19.1    17.9
 2020 182    73    25.1    24.9    24.4    23.8    23.3    22.5    21.6    20.2    19.0    18.1    17.0
 2020 183    74    24.3    24.1    23.6    23.0    22.5    21.8    20.9    19.6    18.4    17.6    16.5
 2020 184    75    24.2    24.0    23.5    22.9    22.4    21.7    20.8    19.6    18.4    17.6    16.5
 2020 185    76    23.9    23.7    23.3    22.7    22.2    21.5    20.6    19.4    18.2    17.4    16.4
 2020 186    77    23.0    22.9    22.4    21.9    21.4    20.8    19.9    18.7    17.6    16.9    15.9
 2020 187    78    24.2    24.1    23.6    23.0    22.5    21.8    21.0    19.7    18.5    17.7    16.7
 2020 188    79    25.6    25.4    24.9    24.3    23.7    23.0    22.1    20.7    19.5    18.6    17.5
 2020 189    80    26.2    26.0    25.5    24.9    24.3    23.6    22.6    21.2    19.9    19.1    17.9
 2020 190    81    26.7    26.5    26.0    25.3    24.8    24.0    23.0    21.6    20.3    19.4    18.2
 2020 191    82    26.3    26.1    25.6    25.0    24.4    23.7    22.7    21.3    20.0    19.2    18.0
 2020 192    83    26.1    26.0    25.5    24.9    24.4    23.6    22.7    21.4    20.1    19.3    18.1
 2020 193    84    25.4    25.2    24.7    24.2    23.7    23.0    22.1    20.8    19.6    18.8    17.7
 2020 194    85    24.4    24.3    23.8    23.3    22.8    22.2    21.3    20.1    19.0    18.2    17.2
 2020 195    86    24.3    24.1    23.7    23.2    22.7    22.1    21.3    20.1    18.9    18.2    17.1
 2020 196    87    23.8    23.7    23.3    22.8    22.4    21.8    21.0    19.9    18.8    18.1    17.2
 2020 197    88    23.4    23.3    22.9    22.4    22.0    21.5    20.7    19.6    18.6    17.9    17.0
 2020 198    89    23.9    23.8    23.4    22.9    22.5    21.9    21.2    20.1    19.0    18.3    17.3
 2020 199    90    24.9    24.8    24.4    23.9    23.4    22.8    22.0    20.9    19.8    19.0    18.0
 2020 200    91    24.4    24.3    23.9    23.4    23.0    22.4    21.6    20.5    19.5    18.8    17.7
 2020 201    92    25.1    24.9    24.5    24.0    23.6    23.0    22.2    21.1    20.0    19.2    18.2
 2020 202    93    25.3    25.1    24.7    24.2    23.8    23.2    22.4    21.2    20.1    19.4    18.4
 2020 203    94    24.3    24.2    23.8    23.4    23.0    22.4    21.7    20.6    19.6    18.9    17.9
 2020 204    95    23.7    23.6    23.2    22.8    22.4    21.9    21.2    20.2    19.2    18.5    17.5
 2020 205    96    24.2    24.0    23.7    23.2    22.9    22.3    21.6    20.5    19.5    18.8    17.9
 2020 206    97    25.0    24.9    24.5    24.1    23.7    23.1    22.3    21.2    20.2    19.5    18.4
 2020 207    98    25.7    25.6    25.2    24.7    24.3    23.7    22.9    21.8    20.7    20.0    18.9
 2020 208    99    25.9    25.8    25.4    25.0    24.6    24.0    23.2    22.1    21.0    20.3    19.2
 2020 209   100    25.5    25.4    25.1    24.6    24.2    23.6    22.9    21.8    20.8    20.1    19.1
 2020 210   101    25.1    25.0    24.6    24.2    23.8    23.3    22.6    21.5    20.5    19.8    18.8
 2020 211   102    24.3    24.2    23.9    23.5    23.2    22.7    22.0    21.0    20.0    19.4    18.5
 2020 212   103    22.8    22.7    22.5    22.1    21.8    21.4    20.8    20.0    19.2    18.6    17.7
 2020 213   104    22.4    22.3    22.0    21.7    21.5    21.0    20.5    19.7    18.9    18.3    17.5
 2020 214   105    22.2    22.1    21.9    21.6    21.3    20.9    20.4    19.6    18.8    18.3    17.5
 2020 215   106    20.9    20.8    20.6    20.4    20.1    19.8    19.3    18.7    18.0    17.5    16.8
 2020 216   107    19.6    19.6    19.4    19.2    19.0    18.7    18.3    17.7    17.1    16.7    16.0
 2020 217   108    19.5    19.5    19.3    19.1    19.0    18.7    18.3    17.7    17.1    16.7    16.1
 2020 218   109    20.0    19.9    19.8    19.5    19.4    19.1    18.7    18.1    17.5    17.0    16.4
 2020 219   110    20.2    20.1    20.0    19.7    19.6    19.3    18.9    18.3    17.7    17.2    16.6
 2020 220   111    22.0    21.9    21.7    21.4    21.2    20.9    20.4    19.7    19.0    18.5    17.8
 2020 221   112    23.3    23.2    22.9    22.7    22.4    22.0    21.5    20.7    19.9    19.4    18.6
 2020 222   113    24.3    24.2    23.9    23.6    23.3    22.9    22.4    21.5    20.7    20.1    19.3
 2020 223   114    24.3    24.2    23.9    23.6    23.4    22.9    22.4    21.6    20.8    20.2    19.4
 2020 224   115    24.3    24.2    24.0    23.7    23.4    23.0    22.5    21.7    20.8    20.3    19.4
 2020 225   116    23.8    23.8    23.5    23.3    23.0    22.6    22.1    21.4    20.6    20.0    19.2
 2020 226   117    24.3    24.2    24.0    23.7    23.4    23.0    22.5    21.7    20.9    20.4    19.5
 2020 227   118    23.7    23.6    23.4    23.2    22.9    22.6    22.1    21.3    20.6    20.0    19.3
 2020 228   119    23.2    23.1    23.0    22.7    22.5    22.2    21.7    21.0    20.3    19.8    19.0
 2020 229   120    23.4    23.3    23.2    22.9    22.7    22.4    21.9    21.2    20.5    20.0    19.2
 2020 230   121    22.7    22.6    22.4    22.2    22.0    21.7    21.3    20.7    20.0    19.5    18.8
 2020 231   122    22.5    22.4    22.3    22.1    21.9    21.6    21.2    20.6    19.9    19.5    18.8
 2020 232   123    23.1    23.0    22.8    22.6    22.4    22.1    21.7    21.1    20.4    19.9    19.2
 2020 233   124    24.2    24.1    23.9    23.7    23.5    23.1    22.7    22.0    21.2    20.7    19.9
 2020 234   125    24.3    24.3    24.1    23.8    23.6    23.3    22.8    22.1    21.4    20.9    20.1
 2020 235   126    25.2    25.1    24.9    24.6    24.4    24.0    23.5    22.8    22.0    21.5    20.6
 2020 236   127    25.2    25.1    24.9    24.6    24.4    24.1    23.6    22.8    22.1    21.5    20.7
 2020 237   128    25.9    25.8    25.6    25.3    25.0    24.7    24.2    23.4    22.6    22.0    21.2
 2020 238   129    26.3    26.2    26.0    25.7    25.5    25.1    24.6    23.8    22.9    22.4    21.5
 2020 239   130    26.7    26.6    26.4    26.1    25.9    25.5    24.9    24.1    23.3    22.7    21.8
 2020 240   131    26.9    26.9    26.6    26.3    26.1    25.7    25.1    24.3    23.5    22.9    22.0
 2020 241   132    26.3    26.2    26.0    25.8    25.5    25.2    24.7    23.9    23.1    22.5    21.7
 2020 242   133    24.4    24.3    24.1    23.9    23.8    23.5    23.1    22.4    21.8    21.3    20.6
 2020 243   134    24.0    23.9    23.8    23.6    23.4    23.2    22.8    22.2    21.6    21.1    20.4
 2020 244   135    22.0    21.9    21.9    21.7    21.6    21.4    21.2    20.7    20.2    19.8    19.2
 2020 245   136    20.6    20.5    20.5    20.4    20.4    20.2    20.0    19.7    19.3    18.9    18.4
 2020 246   137    19.7    19.7    19.7    19.7    19.6    19.6    19.4    19.1    18.7    18.5    18.0
 2020 247   138    20.2    20.2    20.2    20.2    20.1    20.0    19.8    19.5    19.1    18.8    18.4
 2020 248   139    19.7    19.7    19.7    19.6    19.6    19.5    19.4    19.1    18.8    18.5    18.1
 2020 249   140    20.9    20.9    20.9    20.8    20.7    20.6    20.4    20.1    19.7    19.4    18.9
 2020 250   141    21.9    21.8    21.8    21.7    21.6    21.5    21.2    20.8    20.4    20.0    19.5
 2020 251   142    21.2    21.2    21.2    21.1    21.0    20.9    20.7    20.4    20.0    19.7    19.2
 2020 252   143    18.2    18.2    18.2    18.3    18.3    18.3    18.3    18.1    17.9    17.7    17.4
 2020 253   144    14.6    14.6    14.8    14.9    15.1    15.2    15.3    15.4    15.4    15.4    15.3
 2020 254   145    11.6    11.7    11.9    12.1    12.3    12.6    12.9    13.2    13.4    13.5    13.5
 2020 255   146     9.6     9.7    10.0    10.3    10.6    10.9    11.3    11.7    12.0    12.2    12.3
 2020 256   147     9.5     9.6     9.9    10.2    10.5    10.8    11.2    11.7    12.0    12.2    12.3
 2020 257   148    12.1    12.2    12.4    12.7    12.9    13.1    13.4    13.7    13.9    13.9    14.0
 2020 258   149    14.6    14.6    14.8    15.0    15.1    15.3    15.5    15.6    15.7    15.6    15.5
 2020 259   150    17.0    17.0    17.1    17.2    17.3    17.4    17.4    17.5    17.4    17.3    17.0
 2020 260   151    17.1    17.2    17.3    17.4    17.5    17.5    17.6    17.6    17.5    17.4    17.2
 2020 261   152    17.0    17.1    17.2    17.3    17.4    17.5    17.5    17.6    17.5    17.4    17.2
 2020 262   153    17.0    17.0    17.2    17.3    17.4    17.5    17.5    17.6    17.5    17.4    17.2
 2020 263   154    17.5    17.6    17.7    17.8    17.9    17.9    18.0    18.0    17.9    17.8    17.6
 2020 264   155    17.7    17.7    17.8    17.9    18.0    18.1    18.1    18.1    18.0    17.9    17.7
 2020 265   156    19.0    19.0    19.1    19.1    19.2    19.2    19.2    19.1    19.0    18.8    18.5
 2020 266   157    20.1    20.1    20.2    20.2    20.2    20.2    20.2    20.0    19.8    19.6    19.3
 2020 267   158    20.6    20.6    20.6    20.6    20.6    20.6    20.6    20.4    20.1    19.9    19.6
 2020 268   159    20.3    20.3    20.3    20.4    20.4    20.4    20.3    20.2    20.0    19.8    19.4
