*MANAGEMENT OPERATIONS DAILY OUTPUT FILE

*DSSAT Cropping System Model Ver. 4.8.2.000 -release  APR 04, 2025 15:47:32

*RUN   1        : farm_23                   MZCER048 UNLI2309    1
 MODEL          : MZCER048 - Maize
 EXPERIMENT     : UNLI2309 MZ PIO1366
 DATA PATH      :
 TREATMENT  1   : farm_23                   MZCER048
  

@YEAR DOY   DAS   DAP  IR#C  IRRC  NAPC  NICM  R#AC RESNC RESPC
 2023 110     1     0     0     0     0     0     1    55    16
 2023 111     2     0     0     0     0     0     1    55    16
 2023 112     3     0     0     0     0     0     1    55    16
 2023 113     4     0     0     0     0     0     1    55    16
 2023 114     5     0     0     0     0     0     1    55    16
 2023 115     6     0     0     0     0     0     1    55    16
 2023 116     7     0     0     0     0     0     1    55    16
 2023 117     8     0     0     0     1     0     1    55    16
 2023 118     9     0     0     0     1     0     1    55    16
 2023 119    10     0     0     0     1     0     1    55    16
 2023 120    11     0     0     0     1     0     1    55    16
 2023 121    12     0     0     0     1     0     1    55    16
 2023 122    13     0     0     0     1     0     1    55    16
 2023 123    14     1     0     0     1     0     1    55    16
 2023 124    15     2     0     0     1     0     1    55    16
 2023 125    16     3     0     0     1     0     1    55    16
 2023 126    17     4     0     0     1     0     1    55    16
 2023 127    18     5     0     0     1     0     1    55    16
 2023 128    19     6     0     0     1     0     1    55    16
 2023 129    20     7     0     0     1     0     1    55    16
 2023 130    21     8     0     0     1     0     1    55    16
 2023 131    22     9     0     0     1     0     1    55    16
 2023 132    23    10     0     0     1     0     1    55    16
 2023 133    24    11     0     0     1     0     1    55    16
 2023 134    25    12     0     0     1     0     1    55    16
 2023 135    26    13     0     0     1     0     1    55    16
 2023 136    27    14     0     0     1     0     1    55    16
 2023 137    28    15     0     0     1     0     1    55    16
 2023 138    29    16     0     0     1     0     1    55    16
 2023 139    30    17     0     0     1     0     1    55    16
 2023 140    31    18     0     0     1     0     1    55    16
 2023 141    32    19     0     0     1     0     1    55    16
 2023 142    33    20     0     0     1     0     1    55    16
 2023 143    34    21     0     0     1     0     1    55    16
 2023 144    35    22     0     0     1     0     1    55    16
 2023 145    36    23     0     0     1     0     1    55    16
 2023 146    37    24     0     0     1     0     1    55    16
 2023 147    38    25     0     0     1     0     1    55    16
 2023 148    39    26     0     0     1     0     1    55    16
 2023 149    40    27     0     0     1     0     1    55    16
 2023 150    41    28     0     0     1     0     1    55    16
 2023 151    42    29     0     0     1     0     1    55    16
 2023 152    43    30     0     0     1     0     1    55    16
 2023 153    44    31     0     0     1     0     1    55    16
 2023 154    45    32     0     0     1     0     1    55    16
 2023 155    46    33     0     0     1     0     1    55    16
 2023 156    47    34     0     0     1     0     1    55    16
 2023 157    48    35     0     0     2    84     1    55    16
 2023 158    49    36     0     0     2    84     1    55    16
 2023 159    50    37     0     0     2    84     1    55    16
 2023 160    51    38     0     0     2    84     1    55    16
 2023 161    52    39     0     0     2    84     1    55    16
 2023 162    53    40     0     0     2    84     1    55    16
 2023 163    54    41     0     0     2    84     1    55    16
 2023 164    55    42     0     0     2    84     1    55    16
 2023 165    56    43     0     0     2    84     1    55    16
 2023 166    57    44     0     0     2    84     1    55    16
 2023 167    58    45     0     0     2    84     1    55    16
 2023 168    59    46     0     0     2    84     1    55    16
 2023 169    60    47     0     0     2    84     1    55    16
 2023 170    61    48     0     0     2    84     1    55    16
 2023 171    62    49     0     0     2    84     1    55    16
 2023 172    63    50     0     0     2    84     1    55    16
 2023 173    64    51     0     0     2    84     1    55    16
 2023 174    65    52     0     0     2    84     1    55    16
 2023 175    66    53     0     0     2    84     1    55    16
 2023 176    67    54     0     0     2    84     1    55    16
 2023 177    68    55     0     0     2    84     1    55    16
 2023 178    69    56     0     0     2    84     1    55    16
 2023 179    70    57     0     0     2    84     1    55    16
 2023 180    71    58     1     7     3   112     1    55    16
 2023 181    72    59     1     7     3   112     1    55    16
 2023 182    73    60     1     7     3   112     1    55    16
 2023 183    74    61     1     7     3   112     1    55    16
 2023 184    75    62     1     7     3   112     1    55    16
 2023 185    76    63     1     7     3   112     1    55    16
 2023 186    77    64     1     7     4   112     1    55    16
 2023 187    78    65     1     7     4   112     1    55    16
 2023 188    79    66     1     7     4   112     1    55    16
 2023 189    80    67     2    22     4   112     1    55    16
 2023 190    81    68     2    22     4   112     1    55    16
 2023 191    82    69     3    35     4   112     1    55    16
 2023 192    83    70     3    35     4   112     1    55    16
 2023 193    84    71     3    35     4   112     1    55    16
 2023 194    85    72     4    48     4   112     1    55    16
 2023 195    86    73     4    48     4   112     1    55    16
 2023 196    87    74     4    48     4   112     1    55    16
 2023 197    88    75     4    48     4   112     1    55    16
 2023 198    89    76     4    48     4   112     1    55    16
 2023 199    90    77     4    48     4   112     1    55    16
 2023 200    91    78     4    48     4   112     1    55    16
 2023 201    92    79     5    56     5   146     1    55    16
 2023 202    93    80     5    56     5   146     1    55    16
 2023 203    94    81     5    56     5   146     1    55    16
 2023 204    95    82     5    56     5   146     1    55    16
 2023 205    96    83     5    56     5   146     1    55    16
 2023 206    97    84     6    69     5   146     1    55    16
 2023 207    98    85     6    69     5   146     1    55    16
 2023 208    99    86     6    69     5   146     1    55    16
 2023 209   100    87     6    69     5   146     1    55    16
 2023 210   101    88     7    82     5   146     1    55    16
 2023 211   102    89     7    82     5   146     1    55    16
 2023 212   103    90     8   101     5   146     1    55    16
 2023 213   104    91     8   101     5   146     1    55    16
 2023 214   105    92     9   108     6   174     1    55    16
 2023 215   106    93     9   108     6   174     1    55    16
 2023 216   107    94     9   108     6   174     1    55    16
 2023 217   108    95     9   108     6   174     1    55    16
 2023 218   109    96     9   108     6   174     1    55    16
 2023 219   110    97     9   108     6   174     1    55    16
 2023 220   111    98     9   108     6   174     1    55    16
 2023 221   112    99    10   114     7   196     1    55    16
 2023 222   113   100    10   114     7   196     1    55    16
 2023 223   114   101    10   114     7   196     1    55    16
 2023 224   115   102    10   114     7   196     1    55    16
 2023 225   116   103    10   114     7   196     1    55    16
 2023 226   117   104    10   114     7   196     1    55    16
 2023 227   118   105    10   114     7   196     1    55    16
 2023 228   119   106    10   114     7   196     1    55    16
 2023 229   120   107    11   139     7   196     1    55    16
 2023 230   121   108    11   139     7   196     1    55    16
 2023 231   122   109    11   139     7   196     1    55    16
 2023 232   123   110    11   139     7   196     1    55    16
 2023 233   124   111    12   164     7   196     1    55    16
 2023 234   125   112    12   164     7   196     1    55    16
 2023 235   126   113    12   164     7   196     1    55    16
 2023 236   127   114    12   164     7   196     1    55    16
 2023 237   128   115    12   164     7   196     1    55    16
 2023 238   129   116    12   164     7   196     1    55    16
 2023 239   130   117    12   164     7   196     1    55    16
 2023 240   131   118    12   164     7   196     1    55    16
 2023 241   132   119    13   190     7   196     1    55    16
 2023 242   133   120    13   190     7   196     1    55    16
 2023 243   134   121    14   215     7   196     1    55    16
 2023 244   135   122    14   215     7   196     1    55    16
 2023 245   136   123    14   215     7   196     1    55    16
 2023 246   137   124    14   215     7   196     1    55    16
 2023 247   138   125    14   215     7   196     1    55    16
 2023 248   139   126    15   241     7   196     1    55    16
 2023 249   140   127    15   241     7   196     1    55    16
 2023 250   141   128    15   241     7   196     1    55    16
 2023 251   142   129    15   241     7   196     1    55    16
 2023 252   143   130    15   241     7   196     1    55    16
 2023 253   144   131    15   241     7   196     1    55    16
 2023 254   145   132    15   241     7   196     1    55    16
 2023 255   146   133    15   241     7   196     1    55    16
 2023 256   147   134    15   241     7   196     1    55    16
 2023 257   148   135    15   241     7   196     1    55    16
 2023 258   149   136    15   241     7   196     1    55    16
 2023 259   150   137    15   241     7   196     1    55    16
 2023 260   151   138    15   241     7   196     1    55    16
 2023 261   152   139    15   241     7   196     1    55    16
 2023 262   153   140    15   241     7   196     1    55    16
 2023 263   154   141    15   241     7   196     1    55    16
 2023 264   155   142    15   241     7   196     1    55    16
 2023 265   156   143    15   241     7   196     1    55    16
 2023 266   157   144    15   241     7   196     1    55    16
 2023 267   158   145    15   241     7   196     1    55    16
 2023 268   159   146    15   241     7   196     1    55    16
