*Soil Inorganic Nitrogen daily output file

*DSSAT Cropping System Model Ver. 4.8.2.000 -release  APR 04, 2025 15:47:32

*RUN   1        : farm_23                   MZCER048 UNLI2309    1
 MODEL          : MZCER048 - Maize
 EXPERIMENT     : UNLI2309 MZ PIO1366
 DATA PATH      :
 TREATMENT  1   : farm_23                   MZCER048
  
!                                                                                                                                      NO3 (ppm) at soil dep. (cm):                                                    NH4 (ppm) at soil dep. (cm):                                                    Total Inorganic N @dep(ppm):
!                                                                                                                                       0-5    5-15   15-23   23-31   31-46   46-61   61-91  91-106 106-122 122-183     0-5    5-15   15-23   23-31   31-46   46-61   61-91  91-106 106-122 122-183     0-5    5-15   15-23   23-31   31-46   46-61   61-91  91-106 106-122 122-183
@YEAR DOY   DAS  NAPC  NI#M    NIAD    NITD    NHTD   NURTD    NMNC    NITC    NDNC    NIMC    AMLC   NNMNC    NUCM    NLCC    TDNC    NI1D    NI2D    NI3D    NI4D    NI5D    NI6D    NI7D    NI8D    NI9D    NI10    NH1D    NH2D    NH3D    NH4D    NH5D    NH6D    NH7D    NH8D    NH9D    NH10    NT1D    NT2D    NT3D    NT4D    NT5D    NT6D    NT7D    NT8D    NT9D    NT10    
 2023 109     0     0     0    16.7    14.3     2.4     0.0    0.00    0.00    0.00    0.00    0.00    0.00    0.00    0.00    0.00    0.60     0.6     0.6    0.60    0.60    0.60    0.60    0.60    0.60    0.60    0.10    0.10    0.10    0.10    0.10    0.10    0.10    0.10    0.10    0.10    0.70    0.70    0.70    0.70    0.70    0.70    0.70    0.70    0.70    0.70
 2023 110     1     0     0    16.8    14.6     2.2     0.0    0.14    0.29    0.00    0.00    0.00    0.14    0.00    0.00    0.00    0.61     0.6     0.6    0.61    0.61    0.61    0.61    0.61    0.61    0.61    0.11    0.11    0.11    0.10    0.10    0.10    0.09    0.09    0.09    0.09    0.72    0.72    0.72    0.72    0.71    0.71    0.70    0.70    0.70    0.70
 2023 111     2     0     0    17.0    14.9     2.1     0.0    0.26    0.55    0.00    0.00    0.00    0.26    0.00    0.00    0.00    0.63     0.6     0.6    0.62    0.62    0.62    0.62    0.62    0.62    0.62    0.11    0.11    0.11    0.11    0.10    0.09    0.08    0.08    0.08    0.08    0.74    0.74    0.73    0.73    0.72    0.71    0.71    0.70    0.70    0.70
 2023 112     3     0     0    17.0    15.1     2.0     0.0    0.34    0.77    0.00    0.00    0.00    0.34    0.00    0.00    0.00    0.64     0.6     0.6    0.63    0.63    0.63    0.63    0.63    0.63    0.63    0.11    0.11    0.11    0.11    0.09    0.09    0.08    0.07    0.07    0.07    0.75    0.75    0.74    0.74    0.72    0.72    0.71    0.70    0.70    0.70
 2023 113     4     0     0    17.1    15.3     1.8     0.0    0.36    0.95    0.00    0.00    0.00    0.36    0.00    0.00    0.00    0.65     0.6     0.6    0.64    0.64    0.64    0.64    0.64    0.64    0.64    0.11    0.11    0.10    0.10    0.09    0.08    0.07    0.07    0.07    0.07    0.76    0.75    0.75    0.74    0.72    0.72    0.71    0.70    0.70    0.70
 2023 114     5     0     0    17.1    15.4     1.6     0.0    0.36    1.10    0.00    0.00    0.00    0.36    0.00    0.00    0.00    0.66     0.7     0.7    0.65    0.64    0.64    0.65    0.65    0.64    0.64    0.10    0.10    0.10    0.09    0.08    0.08    0.06    0.06    0.06    0.06    0.76    0.75    0.75    0.74    0.72    0.72    0.71    0.70    0.70    0.70
 2023 115     6     0     0    17.1    15.5     1.5     0.0    0.36    1.23    0.00    0.00    0.00    0.36    0.00    0.00    0.00    0.67     0.7     0.7    0.66    0.65    0.65    0.65    0.65    0.65    0.65    0.09    0.09    0.09    0.09    0.07    0.07    0.06    0.05    0.05    0.05    0.76    0.75    0.75    0.74    0.72    0.72    0.71    0.70    0.70    0.70
 2023 116     7     0     0    17.0    15.6     1.4     0.0    0.36    1.35    0.00    0.00    0.00    0.36    0.00    0.00    0.00    0.67     0.7     0.7    0.66    0.65    0.65    0.66    0.65    0.65    0.65    0.09    0.09    0.08    0.08    0.07    0.07    0.05    0.05    0.05    0.05    0.76    0.75    0.75    0.74    0.72    0.72    0.71    0.70    0.70    0.70
 2023 117     8     0     1    17.1    15.8     1.3     0.0    0.37    1.46    0.00    0.00    0.00    0.37    0.00    0.00    0.00    0.68     0.7     0.7    0.67    0.66    0.66    0.66    0.66    0.66    0.66    0.08    0.08    0.08    0.08    0.06    0.06    0.05    0.05    0.05    0.05    0.76    0.75    0.75    0.74    0.72    0.72    0.71    0.70    0.70    0.70
 2023 118     9     0     1    17.1    15.9     1.2     0.0    0.41    1.59    0.00    0.00    0.00    0.41    0.00    0.00    0.00    0.69     0.7     0.7    0.68    0.67    0.66    0.67    0.66    0.66    0.66    0.08    0.08    0.08    0.08    0.06    0.06    0.04    0.04    0.04    0.04    0.78    0.76    0.76    0.75    0.73    0.72    0.71    0.70    0.70    0.70
 2023 119    10     0     1    17.2    16.0     1.2     0.0    0.48    1.71    0.00    0.00    0.00    0.48    0.00    0.00    0.00    0.70     0.7     0.7    0.68    0.67    0.67    0.67    0.67    0.67    0.67    0.09    0.08    0.08    0.08    0.06    0.06    0.04    0.04    0.04    0.04    0.79    0.77    0.77    0.76    0.73    0.73    0.71    0.71    0.70    0.70
 2023 120    11     0     1    17.3    16.1     1.1     0.0    0.56    1.84    0.00    0.00    0.00    0.56    0.00    0.00    0.00    0.71     0.7     0.7    0.69    0.68    0.67    0.68    0.67    0.67    0.67    0.09    0.09    0.08    0.08    0.06    0.06    0.04    0.03    0.03    0.03    0.81    0.79    0.78    0.77    0.74    0.73    0.72    0.71    0.71    0.70
 2023 121    12     0     1    17.3    16.3     1.1     0.0    0.65    1.96    0.00    0.00    0.00    0.65    0.00    0.00    0.00    0.73     0.7     0.7    0.70    0.68    0.68    0.68    0.68    0.68    0.67    0.10    0.09    0.09    0.08    0.06    0.06    0.04    0.03    0.03    0.03    0.82    0.80    0.79    0.78    0.74    0.74    0.72    0.71    0.71    0.70
 2023 122    13     0     1    17.4    16.4     1.0     0.0    0.71    2.06    0.00    0.00    0.00    0.71    0.00    0.00    0.00    0.74     0.7     0.7    0.71    0.69    0.68    0.69    0.68    0.68    0.68    0.10    0.09    0.09    0.08    0.06    0.06    0.03    0.03    0.03    0.03    0.84    0.81    0.80    0.79    0.75    0.74    0.72    0.71    0.71    0.70
 2023 123    14     0     1    17.4    16.5     1.0     0.0    0.76    2.16    0.00    0.00    0.00    0.76    0.00    0.00    0.00    0.75     0.7     0.7    0.71    0.69    0.69    0.69    0.68    0.68    0.68    0.10    0.09    0.09    0.08    0.06    0.05    0.03    0.03    0.03    0.02    0.85    0.82    0.81    0.80    0.75    0.74    0.72    0.71    0.71    0.70
 2023 124    15     0     1    17.5    16.6     1.0     0.0    0.84    2.27    0.00    0.00    0.00    0.84    0.00    0.00    0.00    0.54     0.8     0.7    0.72    0.70    0.69    0.69    0.69    0.68    0.68    0.10    0.10    0.09    0.08    0.06    0.05    0.03    0.02    0.02    0.02    0.64    0.93    0.83    0.81    0.76    0.75    0.72    0.71    0.71    0.71
 2023 125    16     0     1    17.7    16.7     1.0     0.0    0.97    2.38    0.00    0.00    0.00    0.97    0.00    0.00    0.00    0.32     0.7     0.9    0.86    0.71    0.70    0.70    0.69    0.69    0.68    0.11    0.10    0.10    0.09    0.06    0.05    0.03    0.02    0.02    0.02    0.44    0.85    0.99    0.95    0.77    0.75    0.73    0.71    0.71    0.71
 2023 126    17     0     1    17.8    16.8     1.0     0.0    1.16    2.49    0.00    0.00    0.00    1.16    0.00    0.00    0.00    0.30     0.7     0.9    0.90    0.76    0.71    0.70    0.69    0.69    0.69    0.13    0.12    0.11    0.10    0.06    0.06    0.03    0.02    0.02    0.02    0.43    0.81    0.98    1.00    0.82    0.76    0.74    0.71    0.71    0.71
 2023 127    18     0     1    18.1    16.9     1.1     0.0    1.40    2.64    0.00    0.00    0.00    1.40    0.00    0.00    0.00    0.30     0.7     0.9    0.91    0.81    0.72    0.71    0.70    0.69    0.69    0.15    0.13    0.12    0.11    0.07    0.06    0.04    0.02    0.02    0.02    0.45    0.80    0.98    1.02    0.88    0.78    0.74    0.72    0.72    0.71
 2023 128    19     0     1    18.4    17.1     1.2     0.0    1.68    2.82    0.00    0.00    0.00    1.68    0.00    0.00    0.00    0.32     0.7     0.8    0.89    0.82    0.79    0.71    0.70    0.70    0.69    0.16    0.15    0.14    0.13    0.08    0.07    0.04    0.02    0.02    0.02    0.47    0.82    0.97    1.02    0.89    0.86    0.75    0.72    0.72    0.72
 2023 129    20     0     1    18.7    17.3     1.3     0.0    1.98    3.03    0.00    0.00    0.00    1.98    0.00    0.00    0.00    0.34     0.7     0.8    0.91    0.83    0.81    0.72    0.70    0.70    0.70    0.17    0.16    0.15    0.14    0.08    0.08    0.04    0.03    0.02    0.02    0.51    0.84    0.99    1.05    0.92    0.89    0.77    0.73    0.73    0.72
 2023 130    21     0     1    19.0    17.6     1.4     0.0    2.28    3.26    0.00    0.00    0.00    2.28    0.00    0.00    0.00    0.20     0.6     0.9    0.99    0.87    0.86    0.74    0.71    0.70    0.70    0.17    0.17    0.16    0.15    0.09    0.08    0.05    0.03    0.03    0.02    0.37    0.78    1.04    1.14    0.96    0.95    0.78    0.73    0.73    0.72
 2023 131    22     0     1    19.2    17.7     1.5     0.0    2.57    3.46    0.01    0.00    0.00    2.57    0.00    0.00    0.00    0.12     0.5     0.8    0.96    0.92    0.94    0.81    0.71    0.71    0.70    0.19    0.18    0.18    0.16    0.09    0.09    0.05    0.03    0.03    0.02    0.32    0.66    0.93    1.13    1.01    1.02    0.85    0.74    0.73    0.73
 2023 132    23     0     1    19.5    17.9     1.6     0.0    2.87    3.66    0.01    0.00    0.00    2.87    0.00    0.00    0.00    0.08     0.3     0.6    0.81    0.90    1.00    0.89    0.84    0.71    0.71    0.21    0.20    0.19    0.18    0.10    0.09    0.05    0.03    0.03    0.02    0.29    0.54    0.78    0.99    0.99    1.09    0.94    0.87    0.74    0.73
 2023 133    24     0     1    19.8    18.1     1.7     0.0    3.15    3.86    0.02    0.00    0.00    3.15    0.00    0.00    0.00    0.09     0.3     0.6    0.77    0.83    0.96    0.90    0.91    0.85    0.71    0.23    0.21    0.21    0.19    0.11    0.10    0.05    0.03    0.03    0.02    0.32    0.54    0.76    0.96    0.93    1.06    0.95    0.93    0.88    0.74
 2023 134    25     0     1    20.1    18.4     1.7     0.0    3.44    4.09    0.02    0.00    0.00    3.44    0.00    0.00    0.00    0.12     0.3     0.5    0.73    0.78    0.92    0.89    0.93    0.91    0.78    0.23    0.22    0.21    0.21    0.11    0.10    0.05    0.03    0.03    0.03    0.35    0.55    0.75    0.94    0.89    1.02    0.94    0.96    0.94    0.80
 2023 135    26     0     1    20.4    18.6     1.8     0.0    3.71    4.33    0.03    0.00    0.00    3.71    0.00    0.00    0.00    0.15     0.4     0.5    0.71    0.76    0.89    0.88    0.92    0.93    0.85    0.23    0.22    0.22    0.21    0.11    0.11    0.05    0.03    0.03    0.03    0.38    0.57    0.75    0.92    0.87    1.00    0.93    0.95    0.96    0.87
 2023 136    27     0     1    20.2    18.4     1.7     0.0    3.93    4.57    0.03    0.00    0.00    3.93    0.00    0.39    0.00    0.18     0.4     0.5    0.69    0.73    0.84    0.84    0.86    0.87    0.84    0.22    0.22    0.22    0.21    0.11    0.11    0.05    0.03    0.03    0.02    0.41    0.59    0.75    0.90    0.84    0.95    0.89    0.88    0.90    0.86
 2023 137    28     0     1    20.4    18.6     1.7     0.0    4.14    4.80    0.04    0.00    0.00    4.14    0.00    0.42    0.00    0.21     0.4     0.6    0.70    0.73    0.84    0.84    0.85    0.87    0.85    0.22    0.21    0.22    0.21    0.11    0.11    0.05    0.03    0.03    0.02    0.43    0.61    0.77    0.91    0.84    0.95    0.89    0.88    0.90    0.88
 2023 138    29     0     1    20.3    18.6     1.7     0.0    4.36    5.04    0.04    0.00    0.00    4.36    0.00    0.72    0.00    0.24     0.4     0.6    0.71    0.73    0.84    0.83    0.83    0.85    0.85    0.21    0.21    0.21    0.21    0.11    0.11    0.05    0.03    0.03    0.02    0.46    0.64    0.79    0.92    0.84    0.94    0.88    0.86    0.88    0.87
 2023 139    30     0     1    20.4    18.7     1.7     0.0    4.57    5.28    0.04    0.00    0.00    4.57    0.00    0.79    0.00    0.28     0.5     0.6    0.74    0.75    0.84    0.84    0.82    0.84    0.85    0.21    0.21    0.21    0.21    0.11    0.10    0.05    0.03    0.03    0.02    0.49    0.67    0.81    0.94    0.86    0.95    0.89    0.85    0.87    0.87
 2023 140    31     0     1    20.6    19.0     1.7     0.0    4.78    5.51    0.04    0.00    0.00    4.78    0.00    0.79    0.00    0.31     0.5     0.6    0.76    0.76    0.86    0.85    0.83    0.85    0.85    0.20    0.21    0.21    0.20    0.11    0.10    0.05    0.03    0.03    0.02    0.51    0.69    0.84    0.97    0.87    0.96    0.90    0.85    0.87    0.88
 2023 141    32     0     1    20.9    19.2     1.6     0.0    5.00    5.75    0.04    0.00    0.00    5.00    0.00    0.79    0.00    0.34     0.5     0.7    0.79    0.78    0.87    0.86    0.83    0.85    0.86    0.20    0.20    0.20    0.20    0.11    0.10    0.05    0.03    0.02    0.02    0.54    0.72    0.86    0.99    0.88    0.97    0.91    0.86    0.88    0.88
 2023 142    33     0     1    21.1    19.5     1.6     0.0    5.24    5.99    0.04    0.00    0.00    5.24    0.00    0.79    0.00    0.38     0.5     0.7    0.82    0.79    0.88    0.86    0.83    0.86    0.86    0.20    0.20    0.20    0.20    0.11    0.10    0.05    0.03    0.03    0.02    0.58    0.75    0.89    1.02    0.90    0.99    0.92    0.86    0.88    0.88
 2023 143    34     0     1    21.3    19.7     1.6     0.0    5.50    6.25    0.04    0.00    0.00    5.50    0.00    0.79    0.00    0.42     0.6     0.7    0.85    0.81    0.90    0.87    0.84    0.86    0.86    0.19    0.20    0.20    0.20    0.11    0.10    0.05    0.03    0.03    0.02    0.61    0.78    0.92    1.05    0.92    1.00    0.93    0.86    0.88    0.89
 2023 144    35     0     1    21.6    20.0     1.6     0.0    5.78    6.52    0.04    0.00    0.00    5.78    0.00    0.79    0.00    0.46     0.6     0.7    0.88    0.83    0.91    0.88    0.84    0.86    0.87    0.19    0.20    0.20    0.20    0.11    0.10    0.05    0.03    0.03    0.02    0.65    0.81    0.95    1.08    0.93    1.02    0.94    0.87    0.89    0.89
 2023 145    36     0     1    21.9    20.2     1.7     0.0    6.10    6.83    0.04    0.00    0.00    6.10    0.03    0.79    0.00    0.50     0.6     0.8    0.91    0.84    0.93    0.89    0.85    0.87    0.87    0.19    0.19    0.20    0.20    0.11    0.10    0.05    0.03    0.03    0.02    0.69    0.83    0.97    1.11    0.95    1.04    0.95    0.88    0.89    0.89
 2023 146    37     0     1    22.1    20.5     1.7     0.0    6.45    7.16    0.04    0.00    0.00    6.45    0.11    0.82    0.00    0.28     0.6     0.8    0.98    0.88    0.96    0.91    0.86    0.88    0.87    0.19    0.19    0.20    0.20    0.11    0.11    0.06    0.03    0.03    0.03    0.47    0.81    1.03    1.18    0.99    1.07    0.96    0.89    0.90    0.90
 2023 147    38     0     1    22.3    20.5     1.7     0.0    6.81    7.44    0.04    0.00    0.00    6.81    0.30    0.85    0.00    0.25     0.5     0.8    0.96    0.90    0.99    0.92    0.88    0.89    0.88    0.21    0.21    0.21    0.20    0.11    0.11    0.06    0.03    0.03    0.03    0.46    0.74    0.96    1.16    1.01    1.10    0.98    0.91    0.92    0.91
 2023 148    39     0     1    22.2    20.4     1.8     0.0    7.16    7.75    0.05    0.00    0.00    7.16    0.65    0.92    0.00    0.14     0.3     0.5    0.79    0.91    1.05    0.96    0.92    0.92    0.90    0.22    0.22    0.22    0.21    0.11    0.11    0.06    0.03    0.03    0.03    0.36    0.56    0.76    1.00    1.03    1.16    1.01    0.95    0.95    0.92
 2023 149    40     0     1    22.1    20.2     1.9     0.0    7.52    8.02    0.06    0.00    0.00    7.52    1.04    1.03    0.00    0.15     0.3     0.4    0.60    0.84    1.03    0.97    0.95    0.95    0.91    0.24    0.23    0.23    0.23    0.12    0.11    0.06    0.03    0.03    0.03    0.39    0.49    0.63    0.83    0.96    1.15    1.03    0.98    0.98    0.94
 2023 150    41     0     1    20.8    18.8     1.9     0.0    7.88    8.33    0.06    0.00    0.00    7.88    1.38    2.34    0.00    0.17     0.3     0.3    0.40    0.71    0.93    0.91    0.90    0.90    0.89    0.25    0.23    0.24    0.24    0.12    0.12    0.06    0.03    0.03    0.03    0.42    0.50    0.52    0.64    0.83    1.04    0.97    0.93    0.93    0.92
 2023 151    42     0     1    20.3    18.3     1.9     0.0    8.26    8.70    0.07    0.00    0.00    8.26    1.71    2.86    0.00    0.22     0.3     0.3    0.28    0.61    0.89    0.90    0.87    0.88    0.89    0.24    0.23    0.24    0.24    0.12    0.12    0.06    0.03    0.03    0.03    0.46    0.52    0.52    0.52    0.73    1.01    0.96    0.91    0.92    0.92
 2023 152    43     0     1    20.2    18.3     1.9     0.0    8.65    9.11    0.07    0.00    0.00    8.65    2.05    3.01    0.00    0.27     0.3     0.3    0.29    0.50    0.89    0.91    0.87    0.88    0.89    0.23    0.23    0.23    0.23    0.12    0.12    0.06    0.03    0.03    0.03    0.50    0.53    0.53    0.52    0.62    1.00    0.97    0.90    0.91    0.92
 2023 153    44     0     1    20.1    18.2     1.9     0.0    9.04    9.52    0.07    0.00    0.00    9.04    2.51    3.01    0.00    0.31     0.3     0.3    0.30    0.37    0.91    0.92    0.88    0.89    0.90    0.22    0.22    0.23    0.23    0.12    0.12    0.06    0.03    0.03    0.03    0.53    0.52    0.53    0.52    0.49    1.03    0.98    0.91    0.92    0.93
 2023 154    45     0     1    20.1    18.2     1.9     0.0    9.45    9.94    0.07    0.00    0.00    9.45    2.94    3.03    0.00    0.17     0.3     0.3    0.32    0.28    0.91    0.94    0.89    0.90    0.90    0.21    0.21    0.22    0.22    0.12    0.12    0.06    0.03    0.03    0.03    0.39    0.50    0.55    0.55    0.40    1.03    1.00    0.93    0.94    0.93
 2023 155    46     0     1    19.5    17.6     1.9     0.0    9.83   10.28    0.07    0.00    0.00    9.83    3.19    3.71    0.00    0.18     0.3     0.3    0.27    0.26    0.78    0.90    0.88    0.89    0.91    0.23    0.23    0.23    0.23    0.12    0.12    0.06    0.03    0.03    0.03    0.42    0.48    0.49    0.50    0.38    0.90    0.97    0.91    0.93    0.94
 2023 156    47     0     1    19.8    17.9     1.9     0.0   10.21   10.66    0.07    0.00    0.00   10.21    3.24    3.74    0.00    0.21     0.3     0.3    0.29    0.27    0.79    0.92    0.89    0.91    0.91    0.23    0.23    0.23    0.23    0.12    0.12    0.06    0.03    0.03    0.03    0.45    0.51    0.52    0.52    0.39    0.91    0.98    0.92    0.94    0.94
 2023 157    48    84     2    80.6    41.5    39.1    23.2   10.60   11.04    0.08    0.00    0.00   10.60    3.41    3.96    0.00   16.65    11.8     0.3    0.28    0.27    0.77    0.92    0.89    0.91    0.92   26.16   18.26    0.23    0.23    0.12    0.12    0.06    0.03    0.03    0.03   42.80   30.02    0.52    0.51    0.39    0.88    0.98    0.92    0.94    0.95
 2023 158    49    84     2    84.9    47.4    37.5    14.6   10.98   18.92    0.08    0.00    0.00   10.98    8.09    4.01    0.00   20.53    14.5     0.5    0.31    0.27    0.76    0.93    0.89    0.91    0.92   24.95   17.49    0.23    0.22    0.12    0.12    0.06    0.03    0.03    0.03   45.47   31.96    0.69    0.53    0.39    0.88    0.99    0.93    0.95    0.95
 2023 159    50    84     2    89.4    55.7    33.6     9.1   11.38   27.93    0.08    0.00    0.00   11.38    9.39    4.01    0.00   26.26    18.3     0.5    0.35    0.29    0.78    0.94    0.90    0.92    0.93   22.07   15.69    0.28    0.22    0.12    0.12    0.06    0.03    0.03    0.03   48.33   34.02    0.79    0.57    0.41    0.90    1.01    0.93    0.95    0.96
 2023 160    51    84     2    91.4    63.1    28.2     5.6   11.80   36.41    0.08    0.00    0.00   11.80   11.31    4.01    0.00   31.35    21.7     0.6    0.39    0.31    0.80    0.96    0.91    0.93    0.93   18.19   13.11    0.30    0.21    0.12    0.12    0.06    0.03    0.03    0.03   49.54   34.80    0.86    0.60    0.43    0.92    1.02    0.94    0.96    0.97
 2023 161    52    84     2    92.4    69.6    22.7     3.4   12.24   44.00    0.08    0.00    0.00   12.24   12.95    4.01    0.00   35.80    24.6     0.6    0.43    0.33    0.82    0.98    0.92    0.94    0.94   14.31   10.47    0.30    0.21    0.12    0.12    0.06    0.03    0.03    0.03   50.11   35.08    0.92    0.64    0.45    0.94    1.04    0.95    0.97    0.97
 2023 162    53    84     2    92.2    74.3    17.9     2.1   12.68   50.05    0.08    0.00    0.00   12.68   14.88    4.01    0.00   38.98    26.6     0.7    0.47    0.35    0.84    0.99    0.92    0.94    0.95   10.98    8.14    0.28    0.20    0.12    0.12    0.06    0.03    0.03    0.03   49.96   34.77    0.97    0.68    0.47    0.96    1.06    0.96    0.98    0.98
 2023 163    54    84     2    91.7    77.5    14.2     1.3   13.11   54.63    0.08    0.00    0.00   13.11   16.57    4.01    0.00   41.23    27.9     0.7    0.51    0.37    0.86    1.01    0.93    0.95    0.95    8.43    6.33    0.27    0.20    0.12    0.12    0.06    0.03    0.03    0.03   49.66   34.28    1.01    0.71    0.49    0.98    1.07    0.97    0.99    0.99
 2023 164    55    84     2    90.8    79.3    11.5     0.8   13.49   57.93    0.08    0.00    0.00   13.49   18.33    4.01    0.00   42.58    28.6     0.8    0.54    0.39    0.88    1.02    0.94    0.96    0.96    6.59    5.00    0.26    0.20    0.12    0.12    0.06    0.03    0.03    0.03   49.17   33.55    1.04    0.74    0.50    0.99    1.09    0.97    0.99    0.99
 2023 165    56    84     2    89.2    79.8     9.4     0.5   13.85   60.35    0.08    0.00    0.00   13.85   20.54    4.01    0.00   43.12    28.5     0.8    0.56    0.40    0.89    1.04    0.95    0.97    0.97    5.21    3.98    0.25    0.19    0.12    0.12    0.06    0.03    0.03    0.03   48.33   32.49    1.05    0.76    0.51    1.00    1.10    0.98    1.00    1.00
 2023 166    57    84     2    87.5    79.6     7.9     0.3   14.18   62.18    0.08    0.00    0.00   14.18   22.75    4.01    0.00   43.30    28.1     0.8    0.58    0.41    0.89    1.05    0.95    0.97    0.97    4.18    3.23    0.24    0.19    0.12    0.11    0.06    0.03    0.03    0.03   47.48   31.35    1.06    0.77    0.52    1.01    1.11    0.99    1.00    1.00
 2023 167    58    84     2    85.3    78.7     6.6     0.2   14.51   63.70    0.08    0.00    0.00   14.51   25.45    4.01    0.00   42.96    27.4     0.8    0.59    0.41    0.90    1.06    0.96    0.98    0.98    3.32    2.59    0.23    0.19    0.12    0.11    0.06    0.03    0.03    0.03   46.28   29.96    1.07    0.79    0.53    1.01    1.12    0.99    1.01    1.01
 2023 168    59    84     2    83.3    77.8     5.5     0.1   14.85   65.02    0.08    0.00    0.00   14.85   27.80    4.01    0.00   42.67    26.6     0.8    0.61    0.42    0.90    1.07    0.97    0.98    0.98    2.63    2.07    0.22    0.19    0.12    0.11    0.06    0.03    0.03    0.03   45.31   28.71    1.07    0.80    0.53    1.02    1.13    1.00    1.02    1.02
 2023 169    60    84     2    80.9    76.2     4.6     0.1   15.21   66.19    0.08    0.00    0.00   15.21   30.66    4.01    0.00   41.92    25.6     0.9    0.62    0.42    0.90    1.08    0.97    0.99    0.99    2.04    1.62    0.22    0.19    0.12    0.11    0.06    0.03    0.03    0.03   43.95   27.24    1.07    0.81    0.54    1.02    1.14    1.01    1.02    1.02
 2023 170    61    84     2    77.4    73.5     3.9     0.1   15.60   67.24    0.08    0.00    0.00   15.60   34.60    4.01    0.00   40.29    24.1     0.8    0.62    0.42    0.89    1.08    0.98    1.00    1.00    1.53    1.24    0.21    0.19    0.12    0.11    0.06    0.03    0.03    0.03   41.82   25.32    1.06    0.81    0.54    1.01    1.14    1.01    1.03    1.03
 2023 171    62    84     2    73.7    70.4     3.3     0.0   16.01   68.19    0.08    0.00    0.00   16.01   38.73    4.01    0.00   38.41    22.4     0.8    0.62    0.42    0.88    1.08    0.99    1.00    1.00    1.12    0.93    0.20    0.19    0.12    0.11    0.06    0.03    0.03    0.03   39.53   23.34    1.04    0.81    0.54    1.00    1.14    1.02    1.04    1.04
 2023 172    63    84     2    71.8    68.9     2.8     0.0   16.44   69.02    0.08    0.00    0.00   16.44   41.06    4.01    0.00   37.70    21.4     0.8    0.64    0.43    0.89    1.08    1.00    1.01    1.01    0.84    0.71    0.20    0.19    0.12    0.12    0.06    0.03    0.03    0.03   38.54   22.14    1.05    0.83    0.55    1.00    1.14    1.03    1.05    1.04
 2023 173    64    84     2    67.1    64.6     2.5     0.0   16.89   69.78    0.09    0.00    0.00   16.89   46.19    4.01    0.00   16.59    26.0     3.9    0.62    0.42    0.86    1.06    1.01    1.02    1.02    0.61    0.53    0.20    0.19    0.12    0.12    0.06    0.03    0.03    0.03   17.20   26.54    4.07    0.81    0.54    0.97    1.13    1.04    1.05    1.05
 2023 174    65    84     2    63.4    61.1     2.3     0.0   17.39   70.41    0.09    0.00    0.00   17.39   50.39    4.01    0.00   12.46    22.9     6.3    0.92    0.42    0.84    1.05    1.02    1.03    1.02    0.56    0.45    0.19    0.19    0.11    0.12    0.06    0.04    0.03    0.03   13.01   23.36    6.51    1.11    0.53    0.96    1.11    1.05    1.06    1.06
 2023 175    66    84     2    58.7    56.4     2.2     0.0   17.89   71.01    0.09    0.00    0.00   17.89   55.61    4.01    0.00   10.20    20.0     6.4    1.21    0.41    0.81    1.02    1.03    1.04    1.03    0.50    0.38    0.20    0.19    0.11    0.12    0.06    0.04    0.03    0.03   10.70   20.39    6.55    1.40    0.52    0.92    1.09    1.06    1.07    1.07
 2023 176    67    84     2    53.2    51.1     2.1     0.0   18.38   71.62    0.09    0.00    0.00   18.38   61.59    4.01    0.00    8.60    17.3     5.5    1.09    0.38    0.76    0.98    1.04    1.05    1.04    0.43    0.33    0.19    0.19    0.11    0.12    0.06    0.04    0.04    0.03    9.03   17.62    5.66    1.27    0.50    0.88    1.05    1.07    1.08    1.08
 2023 177    68    84     2    48.5    46.5     2.0     0.0   18.85   72.17    0.09    0.00    0.00   18.85   66.72    4.01    0.00    7.50    14.9     4.7    0.97    0.36    0.72    0.94    1.04    1.06    1.05    0.36    0.29    0.19    0.19    0.11    0.12    0.06    0.04    0.04    0.03    7.86   15.18    4.92    1.16    0.48    0.83    1.00    1.08    1.09    1.08
 2023 178    69    84     2    44.0    42.0     2.0     0.0   19.30   72.68    0.09    0.00    0.00   19.30   71.68    4.01    0.00    6.47    12.6     4.0    0.86    0.34    0.66    0.88    1.05    1.06    1.06    0.32    0.27    0.19    0.19    0.12    0.12    0.06    0.04    0.04    0.03    6.78   12.86    4.20    1.05    0.45    0.78    0.95    1.09    1.10    1.09
 2023 179    70    84     2    39.3    37.4     2.0     0.0   19.76   73.18    0.09    0.00    0.00   19.76   76.85    4.01    0.00    5.37    10.3     3.3    0.75    0.31    0.60    0.81    1.06    1.07    1.06    0.28    0.25    0.19    0.19    0.12    0.12    0.06    0.04    0.04    0.03    5.65   10.50    3.46    0.94    0.42    0.71    0.87    1.10    1.11    1.10
 2023 180    71   112     3    53.1    38.3    14.7     7.3   20.24   73.70    0.09    0.00    0.00   20.24   84.24    4.01    0.00    3.01    13.8     2.2    0.55    0.28    0.48    0.67    1.07    1.08    1.07    0.25   10.90    0.19    0.19    0.12    0.12    0.06    0.04    0.04    0.03    3.27   24.75    2.41    0.74    0.40    0.60    0.74    1.11    1.12    1.11
 2023 181    72   112     3    49.5    37.4    12.2     4.3   20.74   77.31    0.09    0.00    0.00   20.74   91.24    4.01    0.00    1.55    12.7     3.8    0.50    0.28    0.44    0.61    1.08    1.09    1.08    0.26    8.79    0.19    0.19    0.12    0.12    0.06    0.04    0.04    0.03    1.81   21.49    4.00    0.68    0.40    0.55    0.68    1.12    1.13    1.11
 2023 182    73   112     3    48.5    37.8    10.7     2.6   21.24   80.05    0.09    0.00    0.00   21.24   94.52    4.01    0.00    1.34    12.7     4.1    0.81    0.28    0.43    0.59    1.09    1.10    1.09    0.27    7.22    0.61    0.19    0.12    0.12    0.06    0.04    0.04    0.03    1.60   19.90    4.72    0.99    0.40    0.55    0.66    1.13    1.13    1.12
 2023 183    74   112     3    44.1    35.9     8.2     1.5   21.75   82.53    0.09    0.00    0.00   21.75  100.50    4.01    0.00    1.12    11.6     3.8    0.77    0.28    0.40    0.54    1.10    1.11    1.10    0.26    5.00    0.78    0.22    0.12    0.12    0.06    0.04    0.04    0.03    1.38   16.57    4.58    1.00    0.40    0.51    0.61    1.14    1.14    1.13
 2023 184    75   112     3    37.8    32.0     5.9     0.9   22.25   84.45    0.09    0.00    0.00   22.25  107.88    4.01    0.00    0.88     9.5     3.0    0.62    0.28    0.34    0.46    1.11    1.12    1.11    0.24    3.04    0.75    0.24    0.12    0.12    0.06    0.04    0.04    0.04    1.12   12.54    3.72    0.86    0.40    0.46    0.53    1.15    1.15    1.14