*Soil Inorganic Nitrogen daily output file

*DSSAT Cropping System Model Ver. 4.8.2.000 -release  JAN 24, 2025 01:19:59

*RUN   1        : silt_loam_13in_irr        MZCER048 UNLI2201    1
 MODEL          : MZCER048 - Maize
 EXPERIMENT     : UNLI2201 MZ IRRIGATED MAIZE PRODUCTION
 DATA PATH      :
 TREATMENT  1   : silt_loam_13in_irr        MZCER048
  
!                                                                                                                                      NO3 (ppm) at soil dep. (cm):                                                    NH4 (ppm) at soil dep. (cm):                                                    Total Inorganic N @dep(ppm):
!                                                                                                                                       0-5    5-15   15-23   23-38   38-53   53-61   61-69   69-84   84-99  99-160     0-5    5-15   15-23   23-38   38-53   53-61   61-69   69-84   84-99  99-160     0-5    5-15   15-23   23-38   38-53   53-61   61-69   69-84   84-99  99-160
@YEAR DOY   DAS  NAPC  NI#M    NIAD    NITD    NHTD   NURTD    NMNC    NITC    NDNC    NIMC    AMLC   NNMNC    NUCM    NLCC    TDNC    NI1D    NI2D    NI3D    NI4D    NI5D    NI6D    NI7D    NI8D    NI9D    NI10    NH1D    NH2D    NH3D    NH4D    NH5D    NH6D    NH7D    NH8D    NH9D    NH10    NT1D    NT2D    NT3D    NT4D    NT5D    NT6D    NT7D    NT8D    NT9D    NT10    
 2022 120     0     0     0     0.0     0.0     0.0     0.0    0.00    0.00    0.00    0.00    0.00    0.00    0.00    0.00    0.00    0.00     0.0     0.0    0.00    0.00    0.00    0.00    0.00    0.00    0.00    0.00    0.00    0.00    0.00    0.00    0.00    0.00    0.00    0.00    0.00    0.00    0.00    0.00    0.00    0.00    0.00    0.00    0.00    0.00    0.00
 2022 121     1     0     0     0.1     0.0     0.1     0.0    0.12    0.00    0.00    0.00    0.00    0.12    0.00    0.00    0.00    0.00     0.0     0.0    0.00    0.00    0.00    0.00    0.00    0.00    0.00    0.02    0.02    0.01    0.01    0.01    0.01    0.01    0.01    0.00    0.00    0.02    0.02    0.01    0.01    0.01    0.01    0.01    0.01    0.00    0.00
 2022 122     2     0     0     0.2     0.0     0.2     0.0    0.23    0.01    0.00    0.00    0.00    0.23    0.00    0.00    0.00    0.00     0.0     0.0    0.00    0.00    0.00    0.00    0.00    0.00    0.00    0.04    0.03    0.02    0.02    0.01    0.01    0.01    0.01    0.01    0.00    0.05    0.03    0.03    0.02    0.01    0.01    0.01    0.01    0.01    0.00
 2022 123     3     0     0     0.3     0.0     0.3     0.0    0.31    0.04    0.00    0.00    0.00    0.31    0.00    0.00    0.00    0.01     0.0     0.0    0.00    0.00    0.00    0.00    0.00    0.00    0.00    0.06    0.04    0.03    0.02    0.02    0.01    0.01    0.01    0.01    0.00    0.06    0.04    0.03    0.02    0.02    0.02    0.01    0.01    0.01    0.01
 2022 124     4     0     0     0.4     0.1     0.3     0.0    0.36    0.06    0.00    0.00    0.00    0.36    0.00    0.00    0.00    0.01     0.0     0.0    0.00    0.00    0.00    0.00    0.00    0.00    0.00    0.07    0.05    0.03    0.02    0.02    0.01    0.01    0.01    0.01    0.00    0.08    0.05    0.04    0.03    0.02    0.02    0.02    0.02    0.01    0.01
 2022 125     5     0     0     0.4     0.1     0.3     0.0    0.39    0.09    0.00    0.00    0.00    0.39    0.00    0.00    0.00    0.02     0.0     0.0    0.01    0.01    0.01    0.00    0.00    0.00    0.00    0.07    0.05    0.04    0.02    0.02    0.01    0.01    0.01    0.01    0.00    0.08    0.06    0.05    0.03    0.02    0.02    0.02    0.02    0.01    0.01
 2022 126     6     0     0     0.4     0.1     0.3     0.0    0.41    0.12    0.00    0.00    0.00    0.41    0.00    0.00    0.00    0.02     0.0     0.0    0.01    0.01    0.01    0.01    0.01    0.00    0.00    0.07    0.05    0.04    0.02    0.02    0.01    0.01    0.01    0.01    0.00    0.09    0.06    0.05    0.03    0.02    0.02    0.02    0.02    0.01    0.01
 2022 127     7     0     0     0.5     0.1     0.3     0.0    0.46    0.15    0.00    0.00    0.00    0.46    0.00    0.00    0.00    0.03     0.0     0.0    0.01    0.01    0.01    0.01    0.01    0.00    0.00    0.08    0.05    0.04    0.03    0.02    0.01    0.01    0.01    0.01    0.00    0.11    0.07    0.06    0.04    0.03    0.02    0.02    0.02    0.01    0.01
 2022 128     8     0     0     0.6     0.2     0.4     0.0    0.60    0.19    0.00    0.00    0.00    0.60    0.00    0.00    0.00    0.04     0.0     0.0    0.01    0.01    0.01    0.01    0.01    0.01    0.00    0.10    0.06    0.05    0.03    0.02    0.02    0.02    0.02    0.01    0.01    0.13    0.09    0.07    0.05    0.03    0.03    0.02    0.02    0.02    0.01
 2022 129     9     0     0     0.8     0.2     0.6     0.0    0.82    0.25    0.00    0.00    0.00    0.82    0.00    0.00    0.00    0.04     0.0     0.0    0.02    0.01    0.01    0.01    0.01    0.01    0.00    0.12    0.08    0.06    0.04    0.03    0.03    0.02    0.02    0.02    0.01    0.16    0.11    0.10    0.07    0.04    0.04    0.04    0.04    0.03    0.01
 2022 130    10     0     0     1.1     0.3     0.8     0.0    1.11    0.34    0.00    0.00    0.00    1.11    0.00    0.00    0.00    0.04     0.0     0.0    0.03    0.02    0.02    0.02    0.01    0.01    0.01    0.15    0.10    0.08    0.06    0.04    0.04    0.03    0.04    0.03    0.02    0.19    0.14    0.12    0.09    0.06    0.06    0.05    0.05    0.04    0.02
 2022 131    11     0     0     1.4     0.5     1.0     0.0    1.45    0.47    0.00    0.00    0.00    1.45    0.00    0.00    0.00    0.05     0.0     0.0    0.05    0.03    0.03    0.02    0.02    0.01    0.01    0.17    0.12    0.10    0.07    0.05    0.05    0.04    0.05    0.04    0.02    0.23    0.17    0.15    0.12    0.08    0.08    0.07    0.07    0.05    0.03
 2022 132    12     0     0     1.8     0.6     1.2     0.0    1.83    0.65    0.00    0.00    0.00    1.83    0.00    0.00    0.00    0.07     0.1     0.1    0.06    0.05    0.05    0.04    0.03    0.02    0.01    0.20    0.15    0.12    0.08    0.06    0.06    0.05    0.06    0.05    0.03    0.27    0.20    0.18    0.14    0.11    0.11    0.09    0.09    0.07    0.04
 2022 133    13     0     0     2.2     0.9     1.4     0.0    2.24    0.87    0.00    0.00    0.00    2.24    0.00    0.00    0.00    0.08     0.1     0.1    0.08    0.07    0.07    0.06    0.05    0.03    0.02    0.23    0.17    0.14    0.09    0.07    0.06    0.06    0.07    0.06    0.04    0.30    0.23    0.21    0.17    0.13    0.14    0.12    0.12    0.09    0.05
 2022 134    14     0     0     2.6     1.1     1.5     0.0    2.63    1.11    0.01    0.00    0.00    2.63    0.00    0.00    0.00    0.09     0.1     0.1    0.09    0.08    0.10    0.08    0.07    0.05    0.03    0.25    0.18    0.15    0.11    0.07    0.07    0.07    0.08    0.06    0.04    0.34    0.26    0.23    0.20    0.16    0.17    0.15    0.15    0.11    0.07
 2022 135    15     0     0     3.0     1.3     1.7     0.0    3.02    1.36    0.01    0.00    0.00    3.02    0.00    0.00    0.00    0.10     0.1     0.1    0.10    0.10    0.11    0.11    0.10    0.07    0.04    0.26    0.20    0.17    0.12    0.08    0.08    0.07    0.08    0.07    0.04    0.36    0.28    0.26    0.22    0.18    0.19    0.18    0.18    0.13    0.08
 2022 136    16     0     0     3.4     1.6     1.8     0.0    3.40    1.63    0.01    0.00    0.00    3.40    0.00    0.00    0.00    0.11     0.1     0.1    0.11    0.11    0.12    0.12    0.12    0.09    0.06    0.28    0.21    0.18    0.13    0.09    0.09    0.08    0.08    0.07    0.05    0.39    0.31    0.28    0.24    0.20    0.20    0.20    0.21    0.16    0.10
 2022 137    17     0     0     3.7     1.9     1.9     0.0    3.76    1.90    0.02    0.00    0.00    3.76    0.00    0.00    0.00    0.12     0.1     0.1    0.12    0.12    0.13    0.13    0.14    0.12    0.08    0.29    0.22    0.19    0.14    0.09    0.09    0.09    0.09    0.07    0.05    0.41    0.32    0.30    0.26    0.21    0.22    0.22    0.23    0.19    0.13
 2022 138    18     0     0     4.1     2.1     1.9     0.0    4.12    2.18    0.02    0.00    0.00    4.12    0.00    0.00    0.00    0.13     0.1     0.1    0.14    0.13    0.14    0.14    0.16    0.14    0.10    0.30    0.23    0.19    0.14    0.10    0.09    0.09    0.09    0.08    0.05    0.42    0.34    0.32    0.28    0.23    0.23    0.23    0.25    0.21    0.15
 2022 139    19     0     0     4.5     2.4     2.0     0.0    4.51    2.49    0.03    0.00    0.00    4.51    0.00    0.01    0.00    0.14     0.1     0.1    0.15    0.14    0.15    0.15    0.17    0.16    0.12    0.30    0.23    0.20    0.15    0.10    0.10    0.09    0.10    0.08    0.05    0.44    0.36    0.34    0.30    0.25    0.25    0.25    0.27    0.23    0.17
 2022 140    20     0     0     4.9     2.8     2.1     0.0    4.93    2.82    0.03    0.00    0.00    4.93    0.00    0.02    0.00    0.15     0.1     0.1    0.16    0.16    0.17    0.17    0.19    0.18    0.14    0.31    0.24    0.21    0.16    0.11    0.10    0.10    0.10    0.08    0.05    0.46    0.38    0.35    0.32    0.27    0.27    0.27    0.29    0.26    0.20
 2022 141    21     0     0     5.2     3.0     2.2     0.0    5.30    3.13    0.04    0.00    0.00    5.30    0.00    0.04    0.00    0.12     0.1     0.1    0.17    0.17    0.18    0.18    0.21    0.20    0.17    0.32    0.25    0.22    0.16    0.11    0.11    0.10    0.11    0.08    0.05    0.44    0.38    0.37    0.34    0.28    0.29    0.28    0.31    0.28    0.22
 2022 142    22     0     0     5.5     3.3     2.2     0.0    5.60    3.39    0.05    0.00    0.00    5.60    0.00    0.08    0.00    0.11     0.1     0.1    0.18    0.18    0.19    0.19    0.22    0.21    0.18    0.33    0.25    0.22    0.17    0.12    0.11    0.10    0.11    0.09    0.06    0.44    0.38    0.37    0.35    0.29    0.30    0.29    0.33    0.30    0.24
 2022 143    23     0     0     5.6     3.4     2.2     0.0    5.80    3.61    0.06    0.00    0.00    5.80    0.00    0.13    0.00    0.09     0.1     0.1    0.17    0.17    0.23    0.20    0.20    0.22    0.19    0.33    0.25    0.22    0.17    0.11    0.11    0.10    0.11    0.09    0.06    0.42    0.36    0.35    0.34    0.29    0.33    0.30    0.32    0.30    0.25
 2022 144    24     0     0     5.6     3.5     2.1     0.0    5.94    3.79    0.07    0.00    0.00    5.94    0.00    0.23    0.00    0.07     0.1     0.1    0.16    0.17    0.21    0.21    0.22    0.22    0.20    0.33    0.25    0.22    0.16    0.11    0.10    0.10    0.11    0.08    0.05    0.40    0.35    0.33    0.33    0.29    0.31    0.31    0.33    0.30    0.25
 2022 145    25     0     0     5.6     3.5     2.1     0.0    6.00    3.94    0.07    0.00    0.00    6.00    0.00    0.35    0.00    0.06     0.1     0.1    0.16    0.17    0.20    0.21    0.23    0.23    0.20    0.32    0.24    0.21    0.16    0.11    0.10    0.09    0.10    0.08    0.05    0.38    0.33    0.32    0.32    0.28    0.30    0.30    0.33    0.30    0.25
 2022 146    26     0     0     5.5     3.6     2.0     0.0    6.10    4.10    0.08    0.00    0.00    6.10    0.00    0.46    0.00    0.07     0.1     0.1    0.15    0.17    0.19    0.21    0.24    0.23    0.21    0.32    0.24    0.21    0.15    0.10    0.09    0.09    0.10    0.07    0.05    0.39    0.32    0.31    0.31    0.27    0.29    0.29    0.33    0.30    0.26
 2022 147    27     0     0     5.6     3.6     2.0     0.0    6.25    4.28    0.09    0.00    0.00    6.25    0.00    0.57    0.00    0.09     0.1     0.1    0.15    0.16    0.19    0.20    0.24    0.23    0.21    0.31    0.24    0.20    0.15    0.10    0.09    0.09    0.10    0.07    0.05    0.40    0.32    0.31    0.30    0.27    0.28    0.29    0.34    0.31    0.26
 2022 148    28     0     0     5.7     3.7     2.0     0.0    6.48    4.49    0.10    0.00    0.00    6.48    0.00    0.69    0.00    0.10     0.1     0.1    0.15    0.16    0.19    0.20    0.24    0.24    0.22    0.31    0.24    0.21    0.16    0.10    0.09    0.09    0.10    0.08    0.05    0.42    0.33    0.32    0.30    0.27    0.28    0.29    0.34    0.31    0.26
 2022 149    29     0     0     5.9     3.8     2.1     0.0    6.79    4.73    0.10    0.00    0.00    6.79    0.00    0.80    0.00    0.11     0.1     0.1    0.15    0.17    0.19    0.21    0.25    0.24    0.22    0.32    0.24    0.21    0.16    0.11    0.09    0.09    0.10    0.08    0.05    0.43    0.35    0.33    0.31    0.27    0.28    0.30    0.35    0.32    0.27
 2022 150    30     0     0     6.1     4.0     2.2     0.0    7.18    5.03    0.12    0.00    0.00    7.18    0.00    0.93    0.00    0.17     0.1     0.1    0.16    0.17    0.19    0.21    0.25    0.25    0.23    0.32    0.25    0.22    0.16    0.11    0.10    0.10    0.11    0.08    0.06    0.49    0.38    0.36    0.32    0.28    0.29    0.31    0.36    0.33    0.28
 2022 151    31     0     0     6.1     3.9     2.2     0.0    7.58    5.38    0.13    0.00    0.00    7.58    0.00    1.30    0.00    0.22     0.2     0.2    0.16    0.15    0.20    0.21    0.18    0.21    0.24    0.33    0.24    0.22    0.16    0.11    0.10    0.10    0.11    0.09    0.06    0.55    0.40    0.37    0.32    0.27    0.30    0.31    0.29    0.30    0.30
 2022 152    32     0     0     6.1     4.0     2.1     0.0    7.97    5.83    0.13    0.00    0.00    7.97    0.00    1.71    0.00    0.31     0.2     0.2    0.18    0.16    0.18    0.19    0.19    0.19    0.20    0.31    0.23    0.21    0.16    0.11    0.10    0.10    0.11    0.09    0.06    0.62    0.43    0.39    0.33    0.27    0.28    0.29    0.30    0.28    0.26
 2022 153    33     0     0     6.1     4.0     2.1     0.0    8.33    6.25    0.14    0.00    0.00    8.33    0.03    2.08    0.00    0.36     0.2     0.2    0.19    0.17    0.18    0.18    0.20    0.19    0.19    0.30    0.22    0.20    0.15    0.11    0.10    0.10    0.11    0.09    0.06    0.66    0.45    0.41    0.34    0.27    0.27    0.28    0.31    0.28    0.25
 2022 154    34     0     0     6.1     4.1     2.0     0.0    8.66    6.63    0.14    0.00    0.00    8.66    0.10    2.29    0.00    0.39     0.3     0.2    0.21    0.17    0.18    0.18    0.21    0.19    0.18    0.29    0.22    0.19    0.15    0.10    0.10    0.09    0.11    0.09    0.06    0.68    0.47    0.42    0.35    0.28    0.28    0.27    0.31    0.28    0.24
 2022 155    35     0     0     6.2     4.2     2.0     0.0    8.96    6.97    0.14    0.00    0.00    8.96    0.19    2.41    0.00    0.41     0.3     0.3    0.22    0.18    0.19    0.19    0.22    0.20    0.19    0.28    0.21    0.19    0.14    0.10    0.09    0.09    0.10    0.09    0.06    0.69    0.49    0.44    0.37    0.29    0.28    0.28    0.32    0.28    0.24
 2022 156    36     0     0     6.4     4.4     2.0     0.0    9.29    7.33    0.14    0.00    0.00    9.29    0.32    2.46    0.00    0.41     0.3     0.3    0.24    0.20    0.20    0.20    0.23    0.21    0.19    0.28    0.21    0.18    0.14    0.10    0.09    0.09    0.10    0.09    0.06    0.69    0.49    0.46    0.38    0.30    0.29    0.29    0.33    0.29    0.25
 2022 157    37     0     0     6.6     4.6     2.0     0.0    9.67    7.72    0.14    0.00    0.00    9.67    0.48    2.47    0.00    0.40     0.3     0.3    0.27    0.22    0.21    0.21    0.25    0.22    0.20    0.28    0.20    0.18    0.14    0.10    0.09    0.09    0.10    0.09    0.06    0.67    0.49    0.46    0.40    0.31    0.31    0.30    0.35    0.31    0.26
 2022 158    38     0     0     6.8     4.8     2.0     0.0   10.09    8.14    0.14    0.00    0.00   10.09    0.67    2.47    0.00    0.34     0.3     0.3    0.27    0.23    0.23    0.23    0.27    0.23    0.21    0.27    0.20    0.17    0.14    0.10    0.09    0.09    0.10    0.09    0.06    0.61    0.52    0.46    0.41    0.33    0.33    0.32    0.37    0.32    0.27
 2022 159    39     0     0     7.0     5.0     2.0     0.0   10.54    8.59    0.14    0.00    0.00   10.54    0.91    2.47    0.00    0.33     0.3     0.3    0.28    0.26    0.25    0.25    0.29    0.25    0.22    0.27    0.20    0.17    0.14    0.10    0.09    0.09    0.10    0.09    0.06    0.60    0.49    0.48    0.41    0.35    0.35    0.34    0.39    0.34    0.28
 2022 160    40     0     0     7.2     5.3     2.0     0.0   11.00    9.04    0.14    0.00    0.00   11.00    1.13    2.47    0.00    0.42     0.3     0.3    0.28    0.28    0.27    0.27    0.31    0.27    0.23    0.26    0.19    0.17    0.13    0.10    0.10    0.09    0.11    0.09    0.06    0.68    0.49    0.46    0.41    0.37    0.37    0.36    0.42    0.36    0.29
 2022 161    41     0     0     7.4     5.4     2.0     0.0   11.46    9.48    0.14    0.00    0.00   11.46    1.39    2.47    0.00    0.40     0.3     0.3    0.28    0.30    0.29    0.28    0.33    0.28    0.24    0.26    0.19    0.17    0.13    0.10    0.10    0.10    0.11    0.09    0.06    0.66    0.49    0.46    0.41    0.39    0.39    0.38    0.44    0.38    0.30
 2022 162    42     0     0     7.6     5.7     2.0     0.0   11.92    9.94    0.14    0.00    0.00   11.92    1.63    2.47    0.00    0.32     0.3     0.3    0.28    0.32    0.31    0.30    0.36    0.30    0.25    0.26    0.19    0.17    0.13    0.10    0.10    0.10    0.11    0.09    0.06    0.58    0.49    0.46    0.41    0.42    0.41    0.40    0.46    0.40    0.32
 2022 163    43     0     0     7.9     5.9     2.0     0.0   12.41   10.42    0.14    0.00    0.00   12.41    1.85    2.47    0.00    0.32     0.3     0.3    0.28    0.34    0.33    0.33    0.38    0.32    0.27    0.26    0.19    0.17    0.13    0.10    0.10    0.10    0.11    0.09    0.06    0.58    0.49    0.46    0.41    0.44    0.44    0.43    0.49    0.42    0.33
 2022 164    44     0     0     8.2     6.2     2.0     0.0   12.95   10.96    0.14    0.00    0.00   12.95    2.10    2.47    0.00    0.32     0.3     0.3    0.29    0.35    0.36    0.35    0.41    0.35    0.28    0.26    0.19    0.16    0.13    0.10    0.10    0.10    0.11    0.09    0.06    0.58    0.50    0.46    0.42    0.45    0.47    0.46    0.52    0.44    0.35
 2022 165    45     0     0     8.5     6.5     2.0     0.0   13.58   11.59    0.14    0.00    0.00   13.58    2.40    2.47    0.00    0.33     0.3     0.3    0.29    0.36    0.39    0.38    0.45    0.38    0.30    0.25    0.18    0.16    0.13    0.10    0.11    0.10    0.11    0.10    0.06    0.58    0.50    0.47    0.42    0.45    0.50    0.49    0.55    0.47    0.36
 2022 166    46     0     0     8.8     6.8     2.0     0.0   14.21   12.23    0.14    0.00    0.00   14.21    2.77    2.47    0.00    0.32     0.3     0.3    0.29    0.35    0.43    0.42    0.48    0.40    0.32    0.25    0.18    0.15    0.13    0.10    0.11    0.10    0.11    0.10    0.07    0.57    0.49    0.46    0.42    0.45    0.53    0.52    0.59    0.50    0.38
 2022 167    47     0     0     9.0     7.0     2.0     0.0   14.84   12.86    0.14    0.00    0.00   14.84    3.16    2.47    0.00    0.31     0.3     0.3    0.29    0.33    0.46    0.45    0.52    0.43    0.34    0.24    0.17    0.15    0.13    0.10    0.11    0.10    0.11    0.10    0.07    0.56    0.49    0.46    0.42    0.43    0.57    0.55    0.63    0.53    0.40
 2022 168    48     0     0     9.2     7.2     2.0     0.0   15.44   13.46    0.14    0.00    0.00   15.44    3.54    2.47    0.00    0.32     0.3     0.3    0.29    0.30    0.49    0.48    0.55    0.46    0.36    0.24    0.17    0.15    0.13    0.10    0.11    0.11    0.11    0.10    0.07    0.56    0.48    0.45    0.42    0.40    0.60    0.58    0.66    0.56    0.42
 2022 169    49     0     0     9.5     7.5     2.0     0.0   16.04   14.06    0.14    0.00    0.00   16.04    3.87    2.47    0.00    0.34     0.3     0.3    0.29    0.28    0.52    0.51    0.59    0.49    0.37    0.24    0.17    0.15    0.13    0.10    0.11    0.11    0.11    0.10    0.07    0.58    0.47    0.45    0.42    0.38    0.63    0.62    0.70    0.59    0.44
 2022 170    50     0     0     9.8     7.8     2.0     0.0   16.62   14.64    0.14    0.00    0.00   16.62    4.18    2.47    0.00    0.37     0.3     0.3    0.29    0.28    0.53    0.54    0.63    0.52    0.39    0.24    0.17    0.15    0.13    0.10    0.11    0.11    0.11    0.10    0.07    0.61    0.47    0.44    0.42    0.38    0.64    0.65    0.74    0.62    0.46
 2022 171    51     0     0    10.1     8.1     2.0     0.0   17.24   15.27    0.14    0.00    0.00   17.24    4.48    2.47    0.00    0.42     0.3     0.3    0.29    0.29    0.53    0.58    0.66    0.55    0.41    0.24    0.16    0.14    0.13    0.10    0.11    0.11    0.11    0.10    0.07    0.66    0.46    0.44    0.42    0.38    0.63    0.68    0.77    0.65    0.48
 2022 172    52     0     0    10.4     8.4     1.9     0.0   17.88   15.93    0.14    0.00    0.00   17.88    4.81    2.47    0.00    0.47     0.3     0.3    0.30    0.29    0.51    0.62    0.71    0.59    0.44    0.23    0.16    0.14    0.12    0.10    0.10    0.10    0.11    0.10    0.07    0.70    0.46    0.44    0.42    0.39    0.61    0.72    0.81    0.69    0.50
 2022 173    53     0     0    10.6     8.7     1.9     0.0   18.50   16.57    0.14    0.00    0.00   18.50    5.17    2.47    0.00    0.51     0.3     0.3    0.30    0.29    0.48    0.64    0.75    0.62    0.46    0.23    0.15    0.14    0.12    0.10    0.10    0.10    0.11    0.10    0.07    0.75    0.45    0.43    0.42    0.38    0.58    0.75    0.86    0.72    0.53
 2022 174    54     0     0    10.8     8.9     1.9     0.0   19.07   17.12    0.14    0.00    0.00   19.07    5.53    2.47    0.00    0.55     0.3     0.3    0.29    0.28    0.45    0.65    0.78    0.65    0.48    0.23    0.15    0.14    0.12    0.10    0.11    0.10    0.11    0.10    0.07    0.78    0.44    0.42    0.41    0.38    0.55    0.75    0.89    0.75    0.55
 2022 175    55     0     0    11.0     9.1     1.9     0.0   19.60   17.65    0.14    0.00    0.00   19.60    5.87    2.47    0.00    0.58     0.3     0.3    0.29    0.28    0.41    0.63    0.82    0.68    0.50    0.23    0.15    0.14    0.13    0.10    0.11    0.10    0.11    0.10    0.07    0.82    0.43    0.42    0.41    0.38    0.52    0.74    0.93    0.78    0.57
 2022 176    56     0     0    11.2     9.2     2.0     0.0   20.10   18.14    0.14    0.00    0.00   20.10    6.21    2.47    0.00    0.62     0.3     0.3    0.28    0.28    0.38    0.59    0.85    0.71    0.52    0.23    0.15    0.14    0.13    0.10    0.11    0.11    0.11    0.10    0.07    0.85    0.43    0.41    0.41    0.38    0.48    0.70    0.96    0.81    0.58
 2022 177    57     0     0    11.3     9.3     2.0     0.0   20.54   18.58    0.14    0.00    0.00   20.54    6.54    2.47    0.00    0.64     0.3     0.3    0.28    0.28    0.34    0.55    0.88    0.74    0.53    0.24    0.15    0.14    0.13    0.10    0.11    0.11    0.11    0.10    0.07    0.88    0.42    0.41    0.41    0.38    0.45    0.65    0.99    0.83    0.60
 2022 178    58     0     0    11.4     9.4     2.0     0.0   20.97   18.99    0.14    0.00    0.00   20.97    6.85    2.47    0.00    0.67     0.3     0.3    0.28    0.28    0.31    0.49    0.90    0.76    0.55    0.24    0.15    0.14    0.13    0.11    0.11    0.11    0.11    0.10    0.07    0.90    0.42    0.41    0.41    0.38    0.42    0.60    1.01    0.86    0.62
 2022 179    59     0     0    11.5     9.5     2.0     0.0   21.39   19.41    0.14    0.00    0.00   21.39    7.15    2.47    0.00    0.69     0.3     0.3    0.28    0.28    0.28    0.45    0.92    0.79    0.56    0.24    0.15    0.14    0.13    0.11    0.11    0.11    0.11    0.10    0.07    0.93    0.42    0.41    0.40    0.38    0.39    0.55    1.03    0.88    0.63
 2022 180    60     0     0    11.6     9.6     2.0     0.0   21.79   19.81    0.14    0.00    0.00   21.79    7.45    2.47    0.00    0.71     0.3     0.3    0.27    0.27    0.28    0.40    0.92    0.81    0.58    0.24    0.15    0.14    0.13    0.11    0.11    0.11    0.11    0.10    0.07    0.95    0.42    0.40    0.40    0.39    0.39    0.51    1.03    0.91    0.65
 2022 181    61     0     0    11.7     9.7     2.0     0.0   22.21   20.22    0.14    0.00    0.00   22.21    7.75    2.47    0.00    0.73     0.3     0.3    0.27    0.27    0.28    0.36    0.92    0.83    0.60    0.24    0.15    0.13    0.13    0.11    0.11    0.11    0.11    0.10    0.07    0.98    0.42    0.40    0.40    0.39    0.39    0.47    1.03    0.93    0.66
 2022 182    62     0     0    11.9     9.9     2.0     0.0   22.65   20.66    0.14    0.00    0.00   22.65    8.05    2.47    0.00    0.76     0.3     0.3    0.27    0.28    0.28    0.33    0.91    0.86    0.61    0.25    0.15    0.13    0.13    0.11    0.12    0.11    0.11    0.10    0.07    1.00    0.42    0.40    0.40    0.39    0.40    0.44    1.02    0.96    0.68
 2022 183    63     0     0    12.0    10.0     2.0     0.0   23.13   21.13    0.14    0.00    0.00   23.13    8.38    2.47    0.00    0.18     0.5     0.3    0.27    0.28    0.28    0.30    0.89    0.89    0.63    0.25    0.15    0.13    0.13    0.11    0.12    0.11    0.11    0.10    0.07    0.43    0.68    0.40    0.40    0.39    0.40    0.41    1.00    0.99    0.70
 2022 184    64     0     0    11.9     9.9     2.0     0.0   23.68   21.67    0.14    0.00    0.00   23.68    9.06    2.47    0.00    0.28     0.3     0.3    0.26    0.27    0.28    0.32    0.87    0.91    0.65    0.26    0.15    0.13    0.13    0.11    0.12    0.11    0.11    0.10    0.07    0.54    0.47    0.42    0.39    0.39    0.40    0.43    0.98    1.01    0.71
 2022 185    65     0     0    12.0    10.0     2.0     0.0   24.27   22.25    0.14    0.00    0.00   24.27    9.48    2.47    0.00    0.37     0.3     0.3    0.27    0.27    0.28    0.33    0.84    0.92    0.66    0.26    0.16    0.13    0.13    0.11    0.12    0.11    0.11    0.10    0.07    0.63    0.46    0.45    0.39    0.39    0.40    0.44    0.95    1.02    0.73
 2022 186    66     0     0    12.1    10.1     2.0     0.0   24.86   22.85    0.14    0.00    0.00   24.86    9.98    2.47    0.00    0.29     0.3     0.4    0.27    0.27    0.28    0.34    0.81    0.94    0.67    0.24    0.16    0.13    0.12    0.11    0.12    0.12    0.11    0.10    0.07    0.54    0.45    0.52    0.40    0.38    0.40    0.46    0.92    1.04    0.74
 2022 187    67     0     0    12.2    10.2     2.0     0.0   25.47   23.45    0.14    0.00    0.00   25.47   10.51    2.47    0.00    0.35     0.3     0.3    0.28    0.27    0.28    0.34    0.78    0.95    0.69    0.25    0.16    0.13    0.12    0.11    0.12    0.12    0.11    0.10    0.07    0.60    0.45    0.47    0.41    0.38    0.41    0.46    0.89    1.05    0.76
 2022 188    68     0     0    12.3    10.3     2.0     0.0   26.09   24.08    0.14    0.00    0.00   26.09   11.04    2.47    0.00    0.31     0.3     0.3    0.30    0.27    0.28    0.33    0.74    0.98    0.71    0.23    0.16    0.13    0.12    0.11    0.13    0.12    0.11    0.10    0.07    0.55    0.46    0.46    0.42    0.38    0.41    0.45    0.85    1.08    0.78
 2022 189    69     0     0    12.4    10.3     2.0     0.0   26.74   24.71    0.14    0.00    0.00   26.74   11.57    2.47    0.00    0.33     0.3     0.3    0.33    0.27    0.28    0.32    0.72    1.00    0.72    0.25    0.16    0.14    0.12    0.11    0.13    0.12    0.11    0.10    0.07    0.58    0.44    0.42    0.45    0.38    0.41    0.44    0.83    1.10    0.79
 2022 190    70     0     0    12.5    10.5     2.0     0.0   27.39   25.36    0.14    0.00    0.00   27.39   12.10    2.47    0.00    0.41     0.3     0.3    0.32    0.27    0.28    0.32    0.69    1.01    0.74    0.24    0.16    0.14    0.12    0.11    0.13    0.12    0.11    0.10    0.07    0.64    0.46    0.43    0.44    0.38    0.41    0.44    0.81    1.12    0.81
 2022 191    71     0     0    12.6    10.5     2.0     0.0   28.04   26.01    0.14    0.00    0.00   28.04   12.67    2.47    0.00    0.42     0.3     0.3    0.30    0.26    0.28    0.32    0.67    1.02    0.75    0.23    0.16    0.14    0.12    0.11    0.13    0.12    0.11    0.10    0.07    0.65    0.48    0.44    0.42    0.37    0.41    0.45    0.79    1.13    0.82
 2022 192    72     0     0    12.7    10.6     2.0     0.0   28.70   26.67    0.14    0.00    0.00   28.70   13.24    2.47    0.00    0.45     0.3     0.3    0.30    0.26    0.28    0.33    0.66    1.03    0.77    0.22    0.16    0.14    0.12    0.11    0.13    0.13    0.11    0.10    0.07    0.67    0.47    0.44    0.42    0.37    0.41    0.45    0.77    1.14    0.83
 2022 193    73     0     0    12.7    10.7     2.0     0.0   29.34   27.30    0.14    0.00    0.00   29.34   13.82    2.47    0.00    0.35     0.3     0.3    0.29    0.27    0.28    0.31    0.63    1.06    0.79    0.22    0.16    0.14    0.12    0.11    0.13    0.13    0.11    0.10    0.07    0.57    0.48    0.44    0.41    0.38    0.41    0.43    0.74    1.16    0.86
 2022 194    74     0     0    12.8    10.7     2.1     0.0   29.96   27.91    0.14    0.00    0.00   29.96   14.37    2.47    0.00    0.33     0.3     0.3    0.29    0.27    0.28    0.29    0.60    1.07    0.81    0.23    0.17    0.14    0.12    0.11    0.13    0.13    0.12    0.11    0.07    0.56    0.48    0.45    0.41    0.38    0.41    0.42    0.72    1.17    0.88
 2022 195    75     0     0    12.9    10.8     2.1     0.0   30.58   28.52    0.14    0.00    0.00   30.58   14.91    2.47    0.00    0.33     0.3     0.3    0.29    0.27    0.28    0.28    0.57    1.06    0.83    0.23    0.17    0.14    0.12    0.11    0.13    0.13    0.12    0.11    0.07    0.56    0.48    0.44    0.41    0.38    0.41    0.41    0.69    1.17    0.90