*SOIL WATER DAILY OUTPUT FILE

*DSSAT Cropping System Model Ver. 4.8.2.000 -release  JAN 24, 2025 01:19:59

*RUN   1        : silt_loam_13in_irr        MZCER048 UNLI2201    1
 MODEL          : MZCER048 - Maize
 EXPERIMENT     : UNLI2201 MZ IRRIGATED MAIZE PRODUCTION
 DATA PATH      :
 TREATMENT  1   : silt_loam_13in_irr        MZCER048
  
!                                                                                                                                   Soil water content (mm3/mm3) by soil depth (cm):
!                                                                                                                                   0-5    5-15   15-23   23-38   38-53   53-61   61-69   69-84   84-99  99-114 114-130 130-145 145-160
@YEAR DOY   DAS    SWTD    SWXD    ROFC    DRNC    PREC    IR#C    IRRC   LATFC    DTWT    MWTD    TDFD    TDFC    ROFD    ROSD    SW1D    SW2D    SW3D    SW4D    SW5D    SW6D    SW7D    SW8D    SW9D   SW10D   SW11D   SW12D   SW13D
 2022 120     0     298     208       0       0       0       0       0       0     160    0.00     0.0     0.0    0.00    0.00   0.200   0.207   0.210   0.210   0.170   0.150   0.150   0.190   0.180   0.180   0.180   0.200   0.190
 2022 121     1     297     207       0       0       0       0       0       0     160    0.00     0.0     0.0    0.00    0.00   0.185   0.206   0.210   0.210   0.170   0.150   0.150   0.190   0.180   0.180   0.180   0.200   0.190
 2022 122     2     330     240       3       0      37       0       0       0     160    0.00     0.0     0.0    2.93    0.00   0.385   0.346   0.279   0.224   0.176   0.154   0.153   0.190   0.180   0.180   0.180   0.200   0.190
 2022 123     3     314     225       3      13      37       0       0       0     160    0.00     0.0     0.0    0.00    0.00   0.292   0.284   0.248   0.216   0.172   0.152   0.152   0.189   0.179   0.179   0.179   0.199   0.189
 2022 124     4     319     229       3      13      42       0       0       0     160    0.00     0.0     0.0    0.00    0.00   0.323   0.273   0.266   0.225   0.177   0.156   0.154   0.190   0.179   0.179   0.179   0.199   0.189
 2022 125     5     320     230       3      13      45       0       0       0     160    0.00     0.0     0.0    0.00    0.00   0.301   0.262   0.270   0.231   0.182   0.163   0.157   0.192   0.178   0.179   0.179   0.199   0.189
 2022 126     6     306     216       3      20      45       0       0       0     160    0.00     0.0     0.0    0.00    0.00   0.231   0.230   0.239   0.218   0.175   0.156   0.152   0.190   0.178   0.179   0.179   0.199   0.189
 2022 127     7     312     222       3      20      56       0       0       0     160    0.00     0.0     0.0    0.00    0.00   0.339   0.240   0.243   0.219   0.176   0.158   0.154   0.190   0.177   0.177   0.177   0.197   0.188
 2022 128     8     302     212       3      25      56       0       0       0     160    0.00     0.0     0.0    0.00    0.00   0.251   0.217   0.223   0.211   0.171   0.153   0.150   0.188   0.178   0.179   0.179   0.199   0.189
 2022 129     9     321     231       3      25      56       1      25       0     160    0.00     0.0     0.0    0.00    0.00   0.352   0.313   0.270   0.221   0.174   0.155   0.151   0.187   0.177   0.177   0.177   0.197   0.188
 2022 130    10     340     250       3      25      56       2      51       0     160    0.00     0.0     0.0    0.00    0.00   0.348   0.366   0.364   0.247   0.186   0.165   0.156   0.188   0.175   0.176   0.176   0.196   0.187
 2022 131    11     359     269       3      25      56       3      76       0     160    0.00     0.0     0.0    0.00    0.00   0.353   0.366   0.372   0.310   0.219   0.196   0.171   0.192   0.176   0.175   0.175   0.195   0.186
 2022 132    12     379     290       3      25      56       4     102       0     160    0.00     0.0     0.0    0.00    0.00   0.361   0.369   0.374   0.352   0.256   0.241   0.198   0.201   0.181   0.175   0.174   0.194   0.185
 2022 133    13     399     309       3      25      56       5     127       0     160    0.00     0.0     0.0    0.00    0.00   0.358   0.368   0.373   0.379   0.288   0.293   0.236   0.213   0.190   0.182   0.173   0.193   0.184
 2022 134    14     419     329       3      25      56       6     152       0     160    0.00     0.0     0.0    0.00    0.00   0.360   0.369   0.374   0.387   0.319   0.345   0.281   0.231   0.201   0.189   0.179   0.192   0.183
 2022 135    15     439     349       3      25      57       7     178       0     160    0.00     0.0     0.0    0.00    0.00   0.356   0.368   0.373   0.387   0.346   0.344   0.345   0.262   0.221   0.201   0.187   0.197   0.182
 2022 136    16     458     368       3      25      58       8     203       0     160    0.00     0.0     0.0    0.00    0.00   0.355   0.367   0.373   0.386   0.349   0.344   0.344   0.310   0.252   0.221   0.199   0.205   0.186
 2022 137    17     476     386       3      25      58       9     229       0     160    0.00     0.0     0.0    0.00    0.00   0.359   0.368   0.374   0.387   0.349   0.344   0.344   0.339   0.282   0.245   0.215   0.218   0.194
 2022 138    18     493     403       3      27      58      10     254       0     159    0.00     0.0     0.0    0.00    0.00   0.355   0.367   0.373   0.386   0.349   0.344   0.344   0.358   0.307   0.269   0.234   0.233   0.205
 2022 139    19     509     419       3      30      58      11     279       0     159    0.00     0.0     0.0    0.00    0.00   0.362   0.370   0.375   0.388   0.350   0.345   0.345   0.367   0.326   0.291   0.253   0.250   0.219
 2022 140    20     528     439       3      34      58      12     305       0     158    0.00     0.0     0.0    0.00    0.00   0.381   0.377   0.379   0.391   0.352   0.347   0.347   0.379   0.343   0.312   0.273   0.270   0.235
 2022 141    21     545     455       3      41      58      13     330       0     157    0.00     0.0     0.0    0.00    0.00   0.376   0.375   0.378   0.390   0.351   0.346   0.346   0.386   0.369   0.334   0.293   0.290   0.253
 2022 142    22     558     468       3      49      58      14     356       0     156    0.00     0.0     0.0    0.00    0.00   0.371   0.373   0.377   0.389   0.351   0.346   0.346   0.385   0.381   0.352   0.315   0.311   0.272
 2022 143    23     581     492       3      61      68      15     381       0     154    0.00     0.0     0.0    0.10    0.00   0.384   0.378   0.380   0.392   0.353   0.347   0.347   0.386   0.382   0.353   0.360   0.367   0.306
 2022 144    24     590     500       3      78      71      16     406       0     151    0.00     0.0     0.0    0.00    0.00   0.380   0.377   0.379   0.391   0.352   0.347   0.347   0.386   0.382   0.353   0.360   0.379   0.359
 2022 145    25     587     498       3     100      71      17     432       0     151    0.00     0.0     0.0    0.00    0.00   0.362   0.370   0.375   0.388   0.350   0.345   0.345   0.384   0.381   0.352   0.358   0.378   0.367
 2022 146    26     586     496       3     119      71      18     457       0     151    0.00     0.0     0.0    0.00    0.00   0.358   0.368   0.374   0.387   0.349   0.344   0.344   0.384   0.380   0.351   0.358   0.378   0.367
 2022 147    27     586     496       3     138      71      19     483       0     151    0.00     0.0     0.0    0.00    0.00   0.357   0.368   0.373   0.387   0.349   0.344   0.344   0.384   0.377   0.351   0.358   0.377   0.367
 2022 148    28     586     496       3     156      71      20     508       0     151    0.00     0.0     0.0    0.00    0.00   0.360   0.369   0.374   0.387   0.350   0.344   0.345   0.384   0.374   0.351   0.358   0.378   0.367
 2022 149    29     587     497       3     175      71      21     533       0     151    0.00     0.0     0.0    0.00    0.00   0.363   0.370   0.375   0.388   0.350   0.345   0.345   0.384   0.376   0.352   0.358   0.378   0.367
 2022 150    30     571     481       3     194      77      21     533       0     151    0.00     0.0     0.0    0.00    0.00   0.365   0.330   0.369   0.349   0.333   0.346   0.346   0.369   0.368   0.352   0.356   0.378   0.368
 2022 151    31     458     368       3     302      77      21     533       0     155    0.00     0.0     0.0    0.00    0.00   0.283   0.275   0.301   0.291   0.266   0.266   0.266   0.296   0.292   0.282   0.285   0.306   0.296
 2022 152    32     389     300       3     366      77      21     533       0     157    0.00     0.0     0.0    0.00    0.00   0.230   0.240   0.259   0.255   0.225   0.218   0.218   0.252   0.245   0.240   0.242   0.262   0.252
 2022 153    33     348     258       3     403      77      21     533       0     158    0.00     0.0     0.0    0.00    0.00   0.195   0.217   0.233   0.233   0.200   0.188   0.189   0.225   0.217   0.214   0.216   0.236   0.226
 2022 154    34     322     232       3     423      77      21     533       0     159    0.00     0.0     0.0    0.00    0.00   0.172   0.203   0.217   0.219   0.185   0.171   0.171   0.209   0.201   0.199   0.200   0.220   0.210
 2022 155    35     306     216       3     433      77      21     533       0     159    0.00     0.0     0.0    0.00    0.00   0.150   0.192   0.206   0.211   0.176   0.160   0.161   0.199   0.190   0.190   0.190   0.210   0.201
 2022 156    36     296     206       3     438      77      21     533       0     160    0.00     0.0     0.0    0.00    0.00   0.133   0.182   0.200   0.206   0.171   0.154   0.155   0.193   0.185   0.184   0.185   0.205   0.195
 2022 157    37     291     201       3     438      78      21     533       0     160    0.00     0.0     0.0    0.00    0.00   0.133   0.171   0.191   0.201   0.168   0.150   0.152   0.191   0.182   0.183   0.183   0.203   0.194
 2022 158    38     301     211       3     438      90      21     533       0     160    0.00     0.0     0.0    0.00    0.00   0.303   0.199   0.189   0.200   0.168   0.150   0.151   0.190   0.181   0.182   0.182   0.201   0.193
 2022 159    39     294     204       3     438      90      21     533       0     160    0.00     0.0     0.0    0.00    0.00   0.225   0.194   0.196   0.195   0.165   0.147   0.149   0.188   0.179   0.180   0.181   0.200   0.191
 2022 160    40     290     200       3     438      90      21     533       0     160    0.00     0.0     0.0    0.00    0.00   0.198   0.191   0.190   0.191   0.163   0.146   0.148   0.186   0.178   0.179   0.180   0.199   0.190
 2022 161    41     288     198       3     438      90      21     533       0     160    0.00     0.0     0.0    0.00    0.00   0.179   0.187   0.187   0.190   0.163   0.146   0.148   0.186   0.178   0.179   0.180   0.199   0.190
 2022 162    42     286     196       3     438      90      21     533       0     160    0.00     0.0     0.0    0.00    0.00   0.161   0.182   0.183   0.189   0.163   0.146   0.148   0.186   0.178   0.179   0.180   0.199   0.190
 2022 163    43     284     194       3     438      90      21     533       0     160    0.00     0.0     0.0    0.00    0.00   0.145   0.177   0.179   0.187   0.163   0.146   0.148   0.186   0.178   0.179   0.180   0.199   0.190
 2022 164    44     281     192       3     438      90      21     533       0     160    0.00     0.0     0.0    0.00    0.00   0.127   0.170   0.173   0.185   0.162   0.146   0.148   0.186   0.178   0.179   0.180   0.199   0.190
 2022 165    45     280     190       3     438      90      21     533       0     160    0.00     0.0     0.0    0.00    0.00   0.115   0.165   0.168   0.183   0.162   0.146   0.148   0.186   0.178   0.179   0.180   0.199   0.190
 2022 166    46     278     188       3     438      90      21     533       0     160    0.00     0.0     0.0    0.00    0.00   0.105   0.158   0.163   0.181   0.162   0.146   0.148   0.186   0.178   0.179   0.180   0.199   0.190
 2022 167    47     276     186       3     438      90      21     533       0     160    0.00     0.0     0.0    0.00    0.00   0.098   0.152   0.157   0.179   0.161   0.146   0.148   0.186   0.178   0.179   0.180   0.199   0.190
 2022 168    48     273     183       3     438      90      21     533       0     160    0.00     0.0     0.0    0.00    0.00   0.091   0.144   0.150   0.176   0.160   0.146   0.148   0.186   0.178   0.179   0.180   0.199   0.190
 2022 169    49     271     181       3     438      90      21     533       0     160    0.00     0.0     0.0    0.00    0.00   0.085   0.136   0.143   0.172   0.159   0.146   0.148   0.186   0.178   0.179   0.180   0.199   0.190
 2022 170    50     269     179       3     438      90      21     533       0     160    0.00     0.0     0.0    0.00    0.00   0.079   0.128   0.135   0.169   0.157   0.145   0.148   0.186   0.178   0.179   0.180   0.199   0.190
 2022 171    51     267     177       3     438      90      21     533       0     160    0.00     0.0     0.0    0.00    0.00   0.075   0.121   0.129   0.166   0.156   0.145   0.148   0.186   0.178   0.179   0.180   0.199   0.190
 2022 172    52     265     175       3     438      90      21     533       0     160    0.00     0.0     0.0    0.00    0.00   0.070   0.116   0.125   0.164   0.155   0.145   0.148   0.186   0.178   0.179   0.180   0.199   0.190
 2022 173    53     263     173       3     438      90      21     533       0     160    0.00     0.0     0.0    0.00    0.00   0.066   0.112   0.119   0.161   0.154   0.144   0.147   0.186   0.178   0.179   0.180   0.199   0.190
 2022 174    54     261     171       3     438      90      21     533       0     160    0.00     0.0     0.0    0.00    0.00   0.062   0.108   0.109   0.157   0.152   0.143   0.147   0.186   0.178   0.179   0.180   0.199   0.190
 2022 175    55     259     169       3     438      91      21     533       0     160    0.00     0.0     0.0    0.00    0.00   0.065   0.105   0.105   0.152   0.149   0.142   0.147   0.186   0.178   0.179   0.180   0.199   0.190
 2022 176    56     257     167       3     438      91      21     533       0     160    0.00     0.0     0.0    0.00    0.00   0.061   0.102   0.102   0.147   0.147   0.141   0.146   0.186   0.178   0.179   0.180   0.199   0.190
 2022 177    57     255     166       3     438      91      21     533       0     160    0.00     0.0     0.0    0.00    0.00   0.058   0.100   0.100   0.143   0.145   0.140   0.146   0.186   0.178   0.179   0.180   0.199   0.190
 2022 178    58     253     163       3     438      91      21     533       0     160    0.00     0.0     0.0    0.00    0.00   0.055   0.098   0.098   0.136   0.141   0.139   0.145   0.186   0.178   0.179   0.180   0.199   0.190
 2022 179    59     251     161       3     438      91      21     533       0     160    0.00     0.0     0.0    0.00    0.00   0.052   0.096   0.096   0.129   0.137   0.137   0.143   0.186   0.178   0.179   0.180   0.199   0.190
 2022 180    60     248     158       3     438      91      21     533       0     160    0.00     0.0     0.0    0.00    0.00   0.050   0.095   0.094   0.122   0.133   0.134   0.142   0.185   0.178   0.179   0.180   0.199   0.190
 2022 181    61     246     156       3     438      91      21     533       0     160    0.00     0.0     0.0    0.00    0.00   0.048   0.093   0.093   0.116   0.130   0.133   0.141   0.185   0.178   0.179   0.180   0.199   0.190
 2022 182    62     244     155       3     438      91      21     533       0     160    0.00     0.0     0.0    0.00    0.00   0.045   0.092   0.092   0.110   0.127   0.131   0.139   0.185   0.178   0.179   0.180   0.199   0.190
 2022 183    63     265     175       3     438     117      21     533       0     160    0.00     0.0     0.0    0.00    0.00   0.367   0.174   0.089   0.102   0.122   0.128   0.137   0.183   0.176   0.178   0.179   0.198   0.189
 2022 184    64     266     176       3     438     125      21     533       0     160    0.00     0.0     0.0    0.00    0.00   0.345   0.213   0.105   0.098   0.118   0.125   0.134   0.181   0.175   0.177   0.178   0.196   0.188
 2022 185    65     258     168       3     438     125      21     533       0     160    0.00     0.0     0.0    0.00    0.00   0.245   0.190   0.138   0.094   0.113   0.121   0.131   0.179   0.173   0.175   0.176   0.195   0.187
 2022 186    66     278     188       4     438     154      21     533       0     160    0.00     0.0     0.0    1.37    0.00   0.350   0.302   0.210   0.096   0.109   0.119   0.129   0.177   0.172   0.174   0.175   0.194   0.186
 2022 187    67     276     186       4     438     155      21     533       0     160    0.00     0.0     0.0    0.00    0.00   0.294   0.273   0.241   0.109   0.107   0.117   0.128   0.176   0.171   0.173   0.174   0.193   0.185
 2022 188    68     282     192       4     438     166      21     533       0     160    0.00     0.0     0.0    0.00    0.00   0.361   0.273   0.259   0.125   0.104   0.116   0.126   0.175   0.170   0.172   0.174   0.192   0.185
 2022 189    69     274     184       4     438     166      21     533       0     160    0.00     0.0     0.0    0.00    0.00   0.263   0.230   0.226   0.169   0.101   0.113   0.124   0.173   0.169   0.171   0.173   0.191   0.184
 2022 190    70     266     176       4     438     166      21     533       0     160    0.00     0.0     0.0    0.00    0.00   0.206   0.203   0.205   0.179   0.097   0.110   0.121   0.171   0.167   0.170   0.171   0.190   0.182
 2022 191    71     259     169       4     438     168      21     533       0     160    0.00     0.0     0.0    0.00    0.00   0.191   0.190   0.190   0.170   0.093   0.107   0.119   0.168   0.166   0.168   0.170   0.189   0.181
 2022 192    72     256     166       4     438     168      21     533       0     160    0.00     0.0     0.0    0.00    0.00   0.177   0.181   0.182   0.167   0.091   0.106   0.118   0.168   0.165   0.168   0.170   0.189   0.181
 2022 193    73     253     163       4     438     168      21     533       0     160    0.00     0.0     0.0    0.00    0.00   0.159   0.173   0.175   0.163   0.090   0.105   0.117   0.168   0.165   0.168   0.170   0.189   0.181
 2022 194    74     250     160       4     438     168      21     533       0     160    0.00     0.0     0.0    0.00    0.00   0.147   0.165   0.167   0.159   0.089   0.103   0.116   0.167   0.165   0.168   0.170   0.189   0.181
 2022 195    75     245     155       4     438     168      21     533       0     160    0.00     0.0     0.0    0.00    0.00   0.129   0.153   0.156   0.154   0.088   0.102   0.114   0.167   0.165   0.168   0.170   0.189   0.181
 2022 196    76     242     152       4     438     168      21     533       0     160    0.00     0.0     0.0    0.00    0.00   0.115   0.145   0.148   0.150   0.087   0.100   0.113   0.166   0.165   0.168   0.170   0.189   0.181
 2022 197    77     240     150       4     438     168      21     533       0     160    0.00     0.0     0.0    0.00    0.00   0.106   0.138   0.141   0.146   0.086   0.099   0.112   0.166   0.165   0.168   0.170   0.189   0.181
 2022 198    78     236     147       4     438     168      21     533       0     160    0.00     0.0     0.0    0.00    0.00   0.098   0.129   0.133   0.142   0.085   0.097   0.111   0.165   0.165   0.168   0.170   0.189   0.181
 2022 199    79     233     143       4     438     168      21     533       0     160    0.00     0.0     0.0    0.00    0.00   0.091   0.117   0.122   0.136   0.084   0.096   0.109   0.165   0.164   0.168   0.170   0.189   0.181
 2022 200    80     230     140       4     438     168      21     533       0     160    0.00     0.0     0.0    0.00    0.00   0.085   0.110   0.112   0.131   0.084   0.094   0.108   0.164   0.164   0.168   0.170   0.188   0.181
 2022 201    81     227     137       4     438     168      21     533       0     160    0.00     0.0     0.0    0.00    0.00   0.080   0.106   0.105   0.125   0.083   0.091   0.106   0.163   0.164   0.168   0.170   0.188   0.181
 2022 202    82     237     147       4     438     186      21     533       0     160    0.00     0.0     0.0    0.00    0.00   0.319   0.138   0.098   0.114   0.080   0.087   0.102   0.160   0.162   0.167   0.168   0.187   0.180
 2022 203    83     230     140       4     438     186      21     533       0     160    0.00     0.0     0.0    0.00    0.00   0.230   0.145   0.094   0.107   0.079   0.084   0.099   0.158   0.160   0.165   0.167   0.186   0.179
 2022 204    84     223     133       4     438     186      21     533       0     160    0.00     0.0     0.0    0.00    0.00   0.185   0.136   0.091   0.100   0.077   0.082   0.096   0.155   0.158   0.164   0.166   0.184   0.177
 2022 205    85     220     130       4     438     186      21     533       0     160    0.00     0.0     0.0    0.00    0.00   0.164   0.126   0.090   0.098   0.077   0.081   0.095   0.154   0.157   0.164   0.166   0.184   0.177
 2022 206    86     224     134       4     438     191      21     533       0     160    0.00     0.0     0.0    0.00    0.00   0.238   0.136   0.090   0.097   0.076   0.080   0.094   0.154   0.157   0.163   0.165   0.184   0.177
 2022 207    87     220     131       4     438     191      21     533       0     160    0.00     0.0     0.0    0.00    0.00   0.201   0.134   0.088   0.095   0.075   0.079   0.093   0.152   0.156   0.162   0.165   0.183   0.176
 2022 208    88     241     151       5     438     215      21     533       0     160    0.00     0.0     0.0    0.18    0.00   0.362   0.241   0.123   0.093   0.075   0.078   0.091   0.151   0.154   0.161   0.164   0.182   0.176
 2022 209    89     236     146       5     438     216      21     533       0     160    0.00     0.0     0.0    0.00    0.00   0.280   0.234   0.148   0.091   0.074   0.077   0.089   0.150   0.153   0.160   0.163   0.181   0.175
 2022 210    90     232     143       5     438     216      21     533       0     160    0.00     0.0     0.0    0.00    0.00   0.228   0.213   0.175   0.090   0.073   0.076   0.088   0.148   0.152   0.160   0.162   0.181   0.174
 2022 211    91     226     136       5     438     216      21     533       0     160    0.00     0.0     0.0    0.00    0.00   0.185   0.194   0.173   0.087   0.072   0.075   0.086   0.146   0.151   0.158   0.161   0.179   0.173
 2022 212    92     224     134       5     438     216      21     533       0     160    0.00     0.0     0.0    0.00    0.00   0.167   0.187   0.167   0.087   0.072   0.074   0.085   0.146   0.150   0.158   0.161   0.179   0.173
 2022 213    93     221     131       5     438     216      21     533       0     160    0.00     0.0     0.0    0.00    0.00   0.148   0.179   0.159   0.086   0.072   0.074   0.084   0.145   0.150   0.158   0.161   0.179   0.173
 2022 214    94     220     130       5     438     217      21     533       0     160    0.00     0.0     0.0    0.00    0.00   0.160   0.170   0.151   0.086   0.071   0.073   0.083   0.144   0.150   0.158   0.161   0.179   0.173
 2022 215    95     217     127       5     438     217      21     533       0     160    0.00     0.0     0.0    0.00    0.00   0.144   0.163   0.144   0.086   0.071   0.073   0.082   0.144   0.149   0.158   0.161   0.179   0.173
 2022 216    96     215     125       5     438     217      21     533       0     160    0.00     0.0     0.0    0.00    0.00   0.129   0.156   0.138   0.085   0.071   0.073   0.082   0.143   0.149   0.158   0.161   0.179   0.173
 2022 217    97     213     123       5     438     217      21     533       0     160    0.00     0.0     0.0    0.00    0.00   0.114   0.148   0.131   0.085   0.071   0.072   0.081   0.143   0.149   0.158   0.161   0.179   0.173
 2022 218    98     211     121       5     438     217      21     533       0     160    0.00     0.0     0.0    0.00    0.00   0.105   0.142   0.125   0.084   0.071   0.072   0.080   0.142   0.149   0.158   0.161   0.179   0.173
 2022 219    99     211     121       5     438     218      21     533       0     160    0.00     0.0     0.0    0.00    0.00   0.113   0.140   0.123   0.084   0.071   0.072   0.080   0.142   0.149   0.158   0.161   0.179   0.173
 2022 220   100     209     119       5     438     218      21     533       0     160    0.00     0.0     0.0    0.00    0.00   0.105   0.133   0.117   0.084   0.071   0.072   0.080   0.142   0.148   0.158   0.161   0.179   0.173
 2022 221   101     207     117       5     438     218      21     533       0     160    0.00     0.0     0.0    0.00    0.00   0.097   0.126   0.111   0.084   0.070   0.072   0.079   0.141   0.148   0.158   0.161   0.179   0.173
 2022 222   102     205     115       5     438     218      21     533       0     160    0.00     0.0     0.0    0.00    0.00   0.091   0.118   0.107   0.083   0.070   0.071   0.079   0.140   0.148   0.158   0.161   0.179   0.173
 2022 223   103     204     114       5     438     218      21     533       0     160    0.00     0.0     0.0    0.00    0.00   0.085   0.111   0.104   0.083   0.070   0.071   0.078   0.140   0.147   0.157   0.161   0.179   0.173
 2022 224   104     202     112       5     438     218      21     533       0     160    0.00     0.0     0.0    0.00    0.00   0.079   0.105   0.100   0.082   0.070   0.070   0.077   0.138   0.147   0.157   0.161   0.179   0.173
 2022 225   105     200     110       5     438     218      21     533       0     160    0.00     0.0     0.0    0.00    0.00   0.074   0.101   0.097   0.081   0.069   0.070   0.076   0.137   0.146   0.157   0.161   0.179   0.173
 2022 226   106     199     109       5     438     218      21     533       0     160    0.00     0.0     0.0    0.00    0.00   0.070   0.099   0.095   0.081   0.069   0.069   0.075   0.135   0.145   0.157   0.160   0.179   0.173
 2022 227   107     209     119       5     438     230      21     533       0     160    0.00     0.0     0.0    0.00    0.00   0.254   0.115   0.093   0.080   0.069   0.069   0.074   0.134   0.144   0.156   0.160   0.179   0.173
 2022 228   108     208     118       5     438     230      21     533       0     160    0.00     0.0     0.0    0.00    0.00   0.227   0.123   0.093   0.080   0.068   0.068   0.074   0.133   0.144   0.156   0.160   0.179   0.172
 2022 229   109     204     114       5     438     230      21     533       0     160    0.00     0.0     0.0    0.00    0.00   0.194   0.122   0.090   0.079   0.068   0.068   0.073   0.132   0.142   0.155   0.159   0.178   0.172
 2022 230   110     203     113       5     438     230      21     533       0     160    0.00     0.0     0.0    0.00    0.00   0.175   0.116   0.090   0.078   0.068   0.067   0.073   0.131   0.142   0.155   0.159   0.178   0.172
 2022 231   111     201     111       5     438     230      21     533       0     160    0.00     0.0     0.0    0.00    0.00   0.157   0.112   0.090   0.078   0.068   0.067   0.072   0.131   0.142   0.154   0.159   0.178   0.172
 2022 232   112     200     110       5     438     230      21     533       0     160    0.00     0.0     0.0    0.00    0.00   0.140   0.109   0.089   0.078   0.067   0.067   0.072   0.130   0.141   0.154   0.159   0.178   0.172
 2022 233   113     198     108       5     438     230      21     533       0     160    0.00     0.0     0.0    0.00    0.00   0.124   0.106   0.089   0.078   0.067   0.067   0.072   0.129   0.141   0.154   0.158   0.178   0.172
 2022 234   114     197     107       5     438     230      21     533       0     160    0.00     0.0     0.0    0.00    0.00   0.110   0.103   0.088   0.077   0.067   0.067   0.071   0.128   0.140   0.154   0.158   0.178   0.172
 2022 235   115     195     105       5     438     230      21     533       0     160    0.00     0.0     0.0    0.00    0.00   0.101   0.101   0.087   0.077   0.067   0.066   0.071   0.127   0.140   0.154   0.158   0.178   0.172
 2022 236   116     194     104       5     438     230      21     533       0     160    0.00     0.0     0.0    0.00    0.00   0.094   0.099   0.087   0.077   0.067   0.066   0.070   0.126   0.139   0.153   0.158   0.178   0.172
 2022 237   117     193     103       5     438     230      21     533       0     160    0.00     0.0     0.0    0.00    0.00   0.087   0.097   0.086   0.076   0.066   0.066   0.070   0.124   0.138   0.153   0.157   0.178   0.172
 2022 238   118     192     102       5     438     230      21     533       0     160    0.00     0.0     0.0    0.00    0.00   0.082   0.095   0.085   0.076   0.066   0.065   0.070   0.123   0.138   0.153   0.157   0.178   0.172
 2022 239   119     191     101       5     438     230      21     533       0     160    0.00     0.0     0.0    0.00    0.00   0.077   0.094   0.085   0.076   0.066   0.065   0.069   0.122   0.137   0.152   0.157   0.178   0.172
 2022 240   120     190     100       5     438     230      21     533       0     160    0.00     0.0     0.0    0.00    0.00   0.072   0.092   0.084   0.075   0.066   0.065   0.069   0.120   0.136   0.152   0.157   0.177   0.172
 2022 241   121     189      99       5     438     230      21     533       0     160    0.00     0.0     0.0    0.00    0.00   0.068   0.091   0.083   0.075   0.066   0.064   0.068   0.119   0.135   0.152   0.156   0.177   0.172
 2022 242   122     188      98       5     438     230      21     533       0     160    0.00     0.0     0.0    0.00    0.00   0.064   0.090   0.083   0.075   0.066   0.064   0.068   0.117   0.134   0.151   0.156   0.177   0.171
 2022 243   123     189      99       5     438     232      21     533       0     160    0.00     0.0     0.0    0.00    0.00   0.089   0.089   0.083   0.075   0.065   0.064   0.068   0.116   0.133   0.151   0.156   0.177   0.171