*Soil Organic Matter daily output file

*DSSAT Cropping System Model Ver. 4.8.2.000 -release  JAN 24, 2025 01:19:59

*RUN   1        : silt_loam_13in_irr        MZCER048 UNLI2201    1
 MODEL          : MZCER048 - Maize
 EXPERIMENT     : UNLI2201 MZ IRRIGATED MAIZE PRODUCTION
 DATA PATH      :
 TREATMENT  1   : silt_loam_13in_irr        MZCER048
  
@YEAR DOY   DAS    OMAC    SCDD    SOCD    SC0D    SCTD   SOMCT    LCTD    ONAC    SNDD    SOND    SN0D    SNTD   SOMNT    LNTD
 2022 120     0       0   14312  148718       0  148718  148718     0.0    0.00  1431.2 14871.8    0.00 14871.8 14871.8    0.00
 2022 121     1       0   14312  148717       0  148717  148717     0.0    0.00  1431.2 14871.7    0.00 14871.7 14871.7    0.00
 2022 122     2       0   14312  148716       0  148716  148716     0.0    0.00  1431.2 14871.6    0.00 14871.6 14871.6    0.00
 2022 123     3       0   14312  148715       0  148715  148715     0.0    0.00  1431.2 14871.5    0.00 14871.5 14871.5    0.00
 2022 124     4       0   14312  148714       0  148714  148714     0.0    0.00  1431.2 14871.4    0.00 14871.4 14871.4    0.00
 2022 125     5       0   14311  148714       0  148714  148714     0.0    0.00  1431.1 14871.4    0.00 14871.4 14871.4    0.00
 2022 126     6       0   14311  148714       0  148714  148714     0.0    0.00  1431.1 14871.4    0.00 14871.4 14871.4    0.00
 2022 127     7       0   14311  148713       0  148713  148713     0.0    0.00  1431.1 14871.3    0.00 14871.3 14871.3    0.00
 2022 128     8       0   14311  148712       0  148712  148712     0.0    0.00  1431.1 14871.2    0.00 14871.2 14871.2    0.00
 2022 129     9       0   14311  148710       0  148710  148710     0.0    0.00  1431.1 14871.0    0.00 14871.0 14871.0    0.00
 2022 130    10       0   14310  148707       0  148707  148707     0.0    0.00  1431.0 14870.7    0.00 14870.7 14870.7    0.00
 2022 131    11       0   14310  148703       0  148703  148703     0.0    0.00  1431.0 14870.3    0.00 14870.3 14870.3    0.00
 2022 132    12       0   14309  148700       0  148700  148700     0.0    0.00  1430.9 14870.0    0.00 14870.0 14870.0    0.00
 2022 133    13       0   14309  148695       0  148695  148695     0.0    0.00  1430.9 14869.6    0.00 14869.6 14869.6    0.00
 2022 134    14       0   14308  148692       0  148692  148692     0.0    0.00  1430.8 14869.2    0.00 14869.2 14869.2    0.00
 2022 135    15       0   14308  148688       0  148688  148688     0.0    0.00  1430.8 14868.8    0.00 14868.8 14868.8    0.00
 2022 136    16       0   14307  148684       0  148684  148684     0.0    0.00  1430.7 14868.4    0.00 14868.4 14868.4    0.00
 2022 137    17       0   14307  148680       0  148680  148680     0.0    0.00  1430.7 14868.0    0.00 14868.0 14868.0    0.00
 2022 138    18       0   14306  148677       0  148677  148677     0.0    0.00  1430.6 14867.7    0.00 14867.7 14867.7    0.00
 2022 139    19       0   14306  148673       0  148673  148673     0.0    0.00  1430.6 14867.3    0.00 14867.3 14867.3    0.00
 2022 140    20       0   14305  148669       0  148669  148669     0.0    0.00  1430.5 14866.9    0.00 14866.9 14866.9    0.00
 2022 141    21       0   14305  148665       0  148665  148665     0.0    0.00  1430.5 14866.5    0.00 14866.5 14866.5    0.00
 2022 142    22       0   14304  148662       0  148662  148662     0.0    0.00  1430.4 14866.2    0.00 14866.2 14866.2    0.00
 2022 143    23       0   14304  148660       0  148660  148660     0.0    0.00  1430.4 14866.0    0.00 14866.0 14866.0    0.00
 2022 144    24       0   14304  148659       0  148659  148659     0.0    0.00  1430.4 14865.9    0.00 14865.9 14865.9    0.00
 2022 145    25       0   14304  148658       0  148658  148658     0.0    0.00  1430.4 14865.8    0.00 14865.8 14865.8    0.00
 2022 146    26       0   14304  148657       0  148657  148657     0.0    0.00  1430.4 14865.7    0.00 14865.7 14865.7    0.00
 2022 147    27       0   14303  148655       0  148655  148655     0.0    0.00  1430.3 14865.5    0.00 14865.5 14865.5    0.00
 2022 148    28       0   14303  148653       0  148653  148653     0.0    0.00  1430.3 14865.3    0.00 14865.3 14865.3    0.00
 2022 149    29       0   14303  148650       0  148650  148650     0.0    0.00  1430.3 14865.0    0.00 14865.0 14865.0    0.00
 2022 150    30       0   14302  148646       0  148646  148646     0.0    0.00  1430.2 14864.6    0.00 14864.6 14864.6    0.00
 2022 151    31       0   14302  148642       0  148642  148642     0.0    0.00  1430.2 14864.2    0.00 14864.2 14864.2    0.00
 2022 152    32       0   14301  148638       0  148638  148638     0.0    0.00  1430.1 14863.8    0.00 14863.8 14863.8    0.00
 2022 153    33       0   14301  148635       0  148635  148635     0.1    0.00  1430.1 14863.5    0.00 14863.5 14863.5    0.00
 2022 154    34       0   14300  148631       0  148631  148631     0.2    0.00  1430.0 14863.1    0.00 14863.1 14863.1    0.00
 2022 155    35       0   14300  148629       0  148629  148628     0.3    0.00  1430.0 14862.8    0.00 14862.8 14862.8    0.01
 2022 156    36       0   14299  148625       0  148625  148625     0.4    0.00  1429.9 14862.5    0.00 14862.5 14862.5    0.01
 2022 157    37       0   14299  148622       0  148622  148621     0.5    0.00  1429.9 14862.1    0.00 14862.1 14862.1    0.01
 2022 158    38       0   14298  148618       0  148618  148617     0.7    0.00  1429.8 14861.7    0.00 14861.7 14861.7    0.01
 2022 159    39       0   14298  148613       0  148613  148613     0.9    0.00  1429.8 14861.3    0.00 14861.3 14861.2    0.02
 2022 160    40       0   14297  148609       0  148609  148608     1.1    0.00  1429.7 14860.8    0.00 14860.8 14860.8    0.02
 2022 161    41       0   14297  148605       0  148605  148603     1.4    0.00  1429.7 14860.4    0.00 14860.4 14860.3    0.02
 2022 162    42       0   14296  148600       0  148600  148599     1.6    0.00  1429.6 14859.9    0.00 14859.9 14859.9    0.03
 2022 163    43       0   14296  148596       0  148596  148594     2.0    0.00  1429.6 14859.4    0.00 14859.4 14859.4    0.03
 2022 164    44       0   14295  148591       0  148591  148588     2.3    0.00  1429.5 14858.9    0.00 14858.9 14858.8    0.04
 2022 165    45       0   14294  148585       0  148585  148582     2.7    0.00  1429.4 14858.3    0.00 14858.3 14858.2    0.04
 2022 166    46       0   14293  148579       0  148579  148576     3.2    0.00  1429.3 14857.6    0.00 14857.6 14857.6    0.05
 2022 167    47       0   14293  148573       0  148573  148569     3.7    0.00  1429.3 14857.0    0.00 14857.0 14856.9    0.05
 2022 168    48       0   14292  148568       0  148568  148564     4.2    0.00  1429.2 14856.4    0.00 14856.4 14856.4    0.06
 2022 169    49       0   14292  148562       0  148562  148558     4.8    0.00  1429.2 14855.8    0.00 14855.8 14855.8    0.07
 2022 170    50       0   14291  148557       0  148557  148552     5.5    0.00  1429.1 14855.2    0.00 14855.2 14855.2    0.08
 2022 171    51       0   14291  148552       0  148552  148546     6.2    0.00  1429.1 14854.6    0.00 14854.6 14854.6    0.09
 2022 172    52       0   14290  148546       0  148546  148539     7.0    0.00  1429.0 14854.0    0.00 14854.0 14853.9    0.10
 2022 173    53       0   14290  148541       0  148541  148533     7.7    0.00  1429.0 14853.4    0.00 14853.4 14853.3    0.11
 2022 174    54       0   14289  148536       0  148536  148527     8.5    0.00  1428.9 14852.8    0.00 14852.8 14852.7    0.12
 2022 175    55       0   14289  148531       0  148531  148522     9.4    0.00  1428.9 14852.3    0.00 14852.3 14852.2    0.13
 2022 176    56       0   14288  148527       0  148527  148517    10.3    0.00  1428.8 14851.8    0.00 14851.8 14851.7    0.14
 2022 177    57       0   14288  148524       0  148524  148512    11.2    0.00  1428.8 14851.4    0.00 14851.4 14851.2    0.15
 2022 178    58       0   14288  148520       0  148520  148508    12.1    0.00  1428.8 14851.0    0.00 14851.0 14850.8    0.17
 2022 179    59       0   14288  148517       0  148517  148504    13.1    0.00  1428.8 14850.6    0.00 14850.6 14850.4    0.18
 2022 180    60       0   14287  148514       0  148514  148500    14.2    0.00  1428.7 14850.2    0.00 14850.2 14850.0    0.20
 2022 181    61       0   14287  148511       0  148511  148496    15.3    0.00  1428.7 14849.8    0.00 14849.8 14849.6    0.21
 2022 182    62       0   14287  148508       0  148508  148491    16.4    0.00  1428.7 14849.4    0.00 14849.4 14849.1    0.23
 2022 183    63       0   14287  148504       0  148504  148487    17.6    0.00  1428.6 14848.9    0.00 14848.9 14848.6    0.24
 2022 184    64       0   14286  148500       0  148500  148481    18.5    0.00  1428.6 14848.3    0.00 14848.3 14848.1    0.27
 2022 185    65       0   14285  148495       0  148495  148475    19.3    0.00  1428.5 14847.8    0.00 14847.8 14847.5    0.29
 2022 186    66       0   14284  148489       0  148489  148469    20.2    0.00  1428.4 14847.2    0.00 14847.2 14846.9    0.31
 2022 187    67       0   14283  148484       0  148484  148463    21.0    0.00  1428.3 14846.6    0.00 14846.6 14846.3    0.34
 2022 188    68       0   14283  148479       0  148479  148457    21.7    0.00  1428.2 14846.0    0.00 14846.0 14845.6    0.37
 2022 189    69       0   14282  148473       0  148473  148450    22.5    0.00  1428.2 14845.4    0.00 14845.4 14845.0    0.40
 2022 190    70       0   14281  148467       0  148467  148444    23.1    0.00  1428.1 14844.7    0.00 14844.7 14844.3    0.42
 2022 191    71       0   14280  148461       0  148461  148437    23.7    0.00  1428.0 14844.1    0.00 14844.1 14843.7    0.45
 2022 192    72       0   14280  148455       0  148455  148431    24.4    0.00  1427.9 14843.5    0.00 14843.5 14843.0    0.48
 2022 193    73       0   14279  148450       0  148450  148425    25.1    0.00  1427.8 14842.8    0.00 14842.8 14842.3    0.50
 2022 194    74       0   14278  148444       0  148444  148418    25.9    0.00  1427.8 14842.2    0.00 14842.2 14841.7    0.53
 2022 195    75       0   14277  148439       0  148439  148412    26.8    0.00  1427.7 14841.6    0.00 14841.6 14841.1    0.55
 2022 196    76       0   14277  148434       0  148434  148406    27.8    0.00  1427.6 14841.1    0.00 14841.1 14840.5    0.57
 2022 197    77       0   14276  148429       0  148429  148401    28.8    0.00  1427.6 14840.5    0.00 14840.5 14839.9    0.60
 2022 198    78       0   14276  148425       0  148425  148395    29.9    0.00  1427.5 14839.9    0.00 14839.9 14839.3    0.62
 2022 199    79       0   14275  148420       0  148420  148389    30.9    0.00  1427.5 14839.4    0.00 14839.4 14838.7    0.65
 2022 200    80       0   14275  148415       0  148415  148383    32.1    0.00  1427.4 14838.8    0.00 14838.8 14838.1    0.67
 2022 201    81       0   14274  148411       0  148411  148378    33.3    0.00  1427.4 14838.3    0.00 14838.3 14837.6    0.70
 2022 202    82       0   14274  148407       0  148407  148373    34.6    0.00  1427.3 14837.8    0.00 14837.8 14837.1    0.72
 2022 203    83       0   14273  148403       0  148403  148367    35.7    0.00  1427.3 14837.3    0.00 14837.3 14836.5    0.75
 2022 204    84       0   14272  148399       0  148399  148362    36.9    0.00  1427.2 14836.7    0.00 14836.7 14836.0    0.77
 2022 205    85       0   14272  148394       0  148394  148356    38.0    0.00  1427.1 14836.2    0.00 14836.2 14835.4    0.80
 2022 206    86       0   14271  148390       0  148390  148351    39.3    0.00  1427.1 14835.7    0.00 14835.7 14834.9    0.82
 2022 207    87       0   14271  148387       0  148387  148346    40.5    0.00  1427.0 14835.2    0.00 14835.2 14834.4    0.85
 2022 208    88       0   14270  148383       0  148383  148341    41.7    0.00  1427.0 14834.8    0.00 14834.8 14833.9    0.87
 2022 209    89       0   14270  148379       0  148379  148336    42.6    0.00  1426.9 14834.3    0.00 14834.3 14833.4    0.90
 2022 210    90       0   14269  148376       0  148376  148332    43.6    0.00  1426.8 14833.9    0.00 14833.9 14832.9    0.93
 2022 211    91       0   14268  148372       0  148372  148327    44.5    0.00  1426.8 14833.4    0.00 14833.4 14832.5    0.96
 2022 212    92       0   14268  148368       0  148368  148323    45.4    0.00  1426.7 14833.0    0.00 14833.0 14832.0    0.98
 2022 213    93       0   14267  148365       0  148365  148318    46.3    0.00  1426.6 14832.5    0.00 14832.5 14831.5    1.01
 2022 214    94       0   14267  148361       0  148361  148313    47.3    0.00  1426.6 14832.1    0.00 14832.1 14831.0    1.04
 2022 215    95       0   14266  148356       0  148356  148308    48.2    0.00  1426.5 14831.6    0.00 14831.6 14830.5    1.07
 2022 216    96       0   14265  148352       0  148352  148303    49.1    0.00  1426.4 14831.0    0.00 14831.0 14830.0    1.09
 2022 217    97       0   14265  148347       0  148347  148297    50.0    0.00  1426.3 14830.5    0.00 14830.5 14829.4    1.12
 2022 218    98       0   14264  148343       0  148343  148292    51.0    0.00  1426.3 14830.0    0.00 14830.0 14828.8    1.15
 2022 219    99       0   14263  148339       0  148339  148287    52.1    0.00  1426.2 14829.5    0.00 14829.5 14828.3    1.18
 2022 220   100       0   14263  148335       0  148335  148282    53.2    0.00  1426.2 14829.0    0.00 14829.0 14827.8    1.21
 2022 221   101       0   14262  148332       0  148332  148277    54.4    0.00  1426.1 14828.6    0.00 14828.6 14827.3    1.24
 2022 222   102       0   14262  148328       0  148328  148273    55.6    0.00  1426.1 14828.2    0.00 14828.2 14826.9    1.27
 2022 223   103       0   14262  148326       0  148326  148269    56.9    0.00  1426.0 14827.8    0.00 14827.8 14826.5    1.30
 2022 224   104       0   14261  148323       0  148323  148265    58.2    0.00  1426.0 14827.4    0.00 14827.4 14826.1    1.33
 2022 225   105       0   14261  148320       0  148320  148260    59.6    0.00  1426.0 14827.0    0.00 14827.0 14825.6    1.36
 2022 226   106       0   14260  148316       0  148316  148256    60.9    0.00  1425.9 14826.5    0.00 14826.5 14825.1    1.39
 2022 227   107       0   14260  148313       0  148313  148251    62.3    0.00  1425.9 14826.1    0.00 14826.1 14824.7    1.42
 2022 228   108       0   14260  148310       0  148310  148246    63.5    0.00  1425.8 14825.6    0.00 14825.6 14824.2    1.45
 2022 229   109       0   14259  148306       0  148306  148242    64.6    0.00  1425.8 14825.2    0.00 14825.2 14823.7    1.48
 2022 230   110       0   14259  148303       0  148303  148237    65.8    0.00  1425.7 14824.8    0.00 14824.8 14823.3    1.52
 2022 231   111       0   14258  148300       0  148300  148233    67.0    0.00  1425.7 14824.4    0.00 14824.4 14822.9    1.55
 2022 232   112       0   14258  148298       0  148298  148229    68.3    0.00  1425.7 14824.0    0.00 14824.0 14822.5    1.58
 2022 233   113       0   14258  148295       0  148295  148226    69.7    0.00  1425.6 14823.7    0.00 14823.7 14822.1    1.62
 2022 234   114       0   14257  148293       0  148293  148222    71.0    0.00  1425.6 14823.4    0.00 14823.4 14821.7    1.65
 2022 235   115       0   14257  148291       0  148291  148218    72.4    0.00  1425.6 14823.0    0.00 14823.0 14821.3    1.68
 2022 236   116       0   14257  148288       0  148288  148215    73.8    0.00  1425.5 14822.7    0.00 14822.7 14821.0    1.72
 2022 237   117       0   14256  148286       0  148286  148211    75.2    0.00  1425.5 14822.3    0.00 14822.3 14820.6    1.76
 2022 238   118       0   14256  148283       0  148283  148207    76.6    0.00  1425.5 14822.0    0.00 14822.0 14820.2    1.79
 2022 239   119       0   14256  148281       0  148281  148203    78.0    0.00  1425.4 14821.6    0.00 14821.6 14819.8    1.83
 2022 240   120       0   14256  148278       0  148278  148199    79.4    0.00  1425.4 14821.2    0.00 14821.2 14819.3    1.86
 2022 241   121       0   14255  148275       0  148275  148194    80.8    0.00  1425.4 14820.8    0.00 14820.8 14818.9    1.90
 2022 242   122       0   14255  148272       0  148272  148190    82.2    0.00  1425.3 14820.4    0.00 14820.4 14818.5    1.94
 2022 243   123       0   14255  148270       0  148270  148186    83.6    0.00  1425.3 14820.1    0.00 14820.1 14818.1    1.98
 2022 244   124       0   14254  148267       0  148267  148182    85.0    0.00  1425.3 14819.7    0.00 14819.7 14817.7    2.01
 2022 245   125       0   14254  148265       0  148265  148178    86.4    0.00  1425.3 14819.3    0.00 14819.3 14817.3    2.05
 2022 246   126       0   14254  148262       0  148262  148175    87.8    0.00  1425.2 14819.0    0.00 14819.0 14816.9    2.09
 2022 247   127       0   14254  148260       0  148260  148171    89.3    0.00  1425.2 14818.7    0.00 14818.7 14816.5    2.13
 2022 248   128       0   14254  148258       0  148258  148167    90.8    0.00  1425.2 14818.3    0.00 14818.3 14816.2    2.17
 2022 249   129       0   14253  148256       0  148256  148164    92.3    0.00  1425.2 14818.0    0.00 14818.0 14815.8    2.21
 2022 250   130       0   14253  148254       0  148254  148160    93.7    0.00  1425.1 14817.7    0.00 14817.7 14815.5    2.25
 2022 251   131       0   14253  148252       0  148252  148157    95.2    0.00  1425.1 14817.4    0.00 14817.4 14815.1    2.29
 2022 252   132       0   14253  148250       0  148250  148153    96.7    0.00  1425.1 14817.1    0.00 14817.1 14814.7    2.33
 2022 253   133       0   14252  148248       0  148248  148150    98.2    0.00  1425.1 14816.7    0.00 14816.7 14814.4    2.37
 2022 254   134       0   14252  148246       0  148246  148146    99.5    0.00  1425.1 14816.4    0.00 14816.4 14814.0    2.41
 2022 255   135       0   14252  148244       0  148244  148143   100.9    0.00  1425.0 14816.1    0.00 14816.1 14813.7    2.45
 2022 256   136       0   14252  148242       0  148242  148140   102.4    0.00  1425.0 14815.9    0.00 14815.9 14813.4    2.49
 2022 257   137       0   14252  148241       0  148241  148137   103.9    0.00  1425.0 14815.6    0.00 14815.6 14813.1    2.54
 2022 258   138       0   14252  148240       0  148240  148134   105.3    0.00  1425.0 14815.4    0.00 14815.4 14812.8    2.58
 2022 259   139       0   14251  148238       0  148238  148131   106.7    0.00  1425.0 14815.1    0.00 14815.1 14812.5    2.62
 2022 260   140       0   14251  148235       0  148235  148127   107.7    0.00  1424.9 14814.8    0.00 14814.8 14812.1    2.66
 2022 261   141       0   14251  148230       0  148230  148123   106.9    0.00  1424.9 14814.4    0.00 14814.4 14811.7    2.66
 2022 262   142       0   14250  148225       0  148225  148119   106.0    0.00  1424.8 14813.9    0.00 14813.9 14811.3    2.65
 2022 263   143       0   14250  148221       0  148221  148116   105.3    0.00  1424.8 14813.5    0.00 14813.5 14810.9    2.65
