*SOIL-PLANT-ATMOSPHERE MODULE OUTPUT FILE

*DSSAT Cropping System Model Ver. 4.8.2.000 -release  JAN 24, 2025 01:19:59

*RUN   1        : silt_loam_13in_irr        MZCER048 UNLI2201    1
 MODEL          : MZCER048 - Maize
 EXPERIMENT     : UNLI2201 MZ IRRIGATED MAIZE PRODUCTION
 DATA PATH      :
 TREATMENT  1   : silt_loam_13in_irr        MZCER048
  
!                                                                                                                                                                                        Soil evaporation (mm/d) by soil depth (cm):
!                                                                                                                                                                                        0-5    5-15   15-23   23-38   38-53   53-61   61-69   69-84   84-99  99-160
@YEAR DOY   DAS   SRAA  TMAXA  TMINA    REFA    EOAA    EOPA    EOSA    ETAA    EPAA    ESAA    EFAA    EMAA    EOAC    ETAC    EPAC    ESAC    EFAC    EMAC    KCAA    KBSA    KEAA    ES1D    ES2D    ES3D    ES4D    ES5D    ES6D    ES7D    ES8D    ES9D  ES10D   TRWUD   TWUPD
 2022 121     1  23.70  16.20   3.30 -99.000   4.768   0.000   4.768   0.931   0.000   0.931   0.000   0.000    4.77    0.93    0.00    0.93    0.00    0.00 -99.000 -99.000 -99.000   0.772   0.102   0.023   0.017   0.006   0.002   0.001   0.002   0.002   0.003   0.000   0.000
 2022 122     2   3.80   9.10   0.50 -99.000   0.658   0.000   0.658   0.658   0.000   0.658   0.000   0.000    5.43    1.59    0.00    1.59    0.00    0.00 -99.000 -99.000 -99.000   0.177   0.130   0.058   0.070   0.042   0.017   0.015   0.032   0.027   0.089   0.000   0.000
 2022 123     3  17.50  11.50  -2.30 -99.000   3.248   0.000   3.248   3.248   0.000   3.248   0.000   0.000    8.67    4.84    0.00    4.84    0.00    0.00 -99.000 -99.000 -99.000   0.918   0.652   0.286   0.335   0.200   0.081   0.074   0.153   0.130   0.420   0.000   0.000
 2022 124     4   3.60   8.10   4.60 -99.000   0.665   0.000   0.665   0.665   0.000   0.665   0.000   0.000    9.34    5.50    0.00    5.50    0.00    0.00 -99.000 -99.000 -99.000   0.189   0.127   0.061   0.070   0.042   0.017   0.015   0.032   0.027   0.087   0.000   0.000
 2022 125     5  11.10  13.80   6.30 -99.000   2.310   0.000   2.310   2.310   0.000   2.310   0.000   0.000   11.65    7.81    0.00    7.81    0.00    0.00 -99.000 -99.000 -99.000   0.661   0.421   0.218   0.250   0.148   0.060   0.053   0.110   0.092   0.297   0.000   0.000
 2022 126     6  24.40  26.90   2.80 -99.000   5.861   0.000   5.861   5.861   0.000   5.861   0.000   0.000   17.51   13.67    0.00   13.67    0.00    0.00 -99.000 -99.000 -99.000   1.495   1.043   0.550   0.672   0.404   0.165   0.147   0.306   0.255   0.825   0.000   0.000
 2022 127     7  21.80  27.30   8.40 -99.000   5.393   0.000   5.393   5.393   0.000   5.393   0.000   0.000   22.90   19.07    0.00   19.07    0.00    0.00 -99.000 -99.000 -99.000   1.545   0.922   0.482   0.590   0.355   0.146   0.130   0.269   0.224   0.728   0.000   0.000
 2022 128     8  22.40  24.60  11.50 -99.000   5.691   0.000   5.691   5.691   0.000   5.691   0.000   0.000   28.59   24.76    0.00   24.76    0.00    0.00 -99.000 -99.000 -99.000   1.591   0.953   0.495   0.631   0.383   0.157   0.141   0.294   0.247   0.800   0.000   0.000
 2022 129     9  26.00  23.00  10.30 -99.000   6.233   0.000   6.233   6.233   0.000   6.233   0.000   0.000   34.83   30.99    0.00   30.99    0.00    0.00 -99.000 -99.000 -99.000   1.832   1.169   0.549   0.646   0.387   0.158   0.141   0.294   0.249   0.807   0.000   0.000
 2022 130    10  27.30  24.30   7.30 -99.000   6.696   0.000   6.696   6.696   0.000   6.696   0.000   0.000   41.52   37.69    0.00   37.69    0.00    0.00 -99.000 -99.000 -99.000   2.008   1.428   0.674   0.659   0.380   0.155   0.135   0.276   0.231   0.751   0.000   0.000
 2022 131    11  22.30  32.40  12.80 -99.000   6.294   0.000   6.294   6.294   0.000   6.294   0.000   0.000   47.82   43.98    0.00   43.98    0.00    0.00 -99.000 -99.000 -99.000   1.763   1.362   0.697   0.701   0.381   0.156   0.127   0.246   0.203   0.657   0.000   0.000
 2022 132    12  18.50  30.80  12.30 -99.000   5.116   0.000   5.116   5.116   0.000   5.116   0.000   0.000   52.93   49.10    0.00   49.10    0.00    0.00 -99.000 -99.000 -99.000   1.379   1.059   0.548   0.653   0.350   0.148   0.113   0.198   0.161   0.508   0.000   0.000
 2022 133    13  24.00  24.20   6.30 -99.000   5.845   0.000   5.845   5.845   0.000   5.845   0.000   0.000   58.78   54.94    0.00   54.94    0.00    0.00 -99.000 -99.000 -99.000   1.526   1.164   0.601   0.795   0.443   0.200   0.147   0.230   0.183   0.557   0.000   0.000
 2022 134    14  23.00  22.90   7.90 -99.000   5.580   0.000   5.580   5.580   0.000   5.580   0.000   0.000   64.36   60.52    0.00   60.52    0.00    0.00 -99.000 -99.000 -99.000   1.405   1.074   0.555   0.771   0.459   0.223   0.163   0.229   0.179   0.522   0.000   0.000
 2022 135    15  26.60  22.90   9.20 -99.000   6.531   0.000   6.531   6.531   0.000   6.531   0.000   0.000   70.89   67.05    0.00   67.05    0.00    0.00 -99.000 -99.000 -99.000   1.600   1.221   0.630   0.885   0.574   0.274   0.226   0.291   0.221   0.610   0.000   0.000
 2022 136    16  26.40  29.10   7.40 -99.000   6.892   0.000   6.892   6.892   0.000   6.892   0.000   0.000   77.78   73.94    0.00   73.94    0.00    0.00 -99.000 -99.000 -99.000   1.642   1.258   0.650   0.912   0.621   0.282   0.258   0.351   0.256   0.662   0.000   0.000
 2022 137    17  23.00  28.60  15.30 -99.000   6.351   0.000   6.351   6.351   0.000   6.351   0.000   0.000   84.13   80.29    0.00   80.29    0.00    0.00 -99.000 -99.000 -99.000   1.483   1.136   0.587   0.825   0.564   0.255   0.233   0.362   0.263   0.643   0.000   0.000
 2022 138    18  27.10  29.60  10.40 -99.000   7.291   0.018   7.273   7.291   0.018   7.273   0.000   0.000   91.42   87.59    0.02   87.57    0.00    0.00 -99.000 -99.000 -99.000   1.673   1.279   0.660   0.927   0.634   0.287   0.262   0.438   0.328   0.786   0.002   0.109
 2022 139    19  21.40  31.40   8.80 -99.000   5.798   0.027   5.771   5.798   0.027   5.771   0.000   0.000   97.22   93.38    0.05   93.34    0.00    0.00 -99.000 -99.000 -99.000   1.303   0.999   0.516   0.725   0.496   0.224   0.205   0.358   0.277   0.668   0.003   0.113
 2022 140    20   8.10  11.90   6.80 -99.000   1.663   0.012   1.652   1.663   0.012   1.652   0.000   0.000   98.88   95.05    0.06   94.99    0.00    0.00 -99.000 -99.000 -99.000   0.370   0.282   0.146   0.204   0.140   0.063   0.058   0.103   0.082   0.203   0.001   0.119
 2022 141    21  14.20  13.80  -0.60 -99.000   2.786   0.020   2.766   2.786   0.020   2.766   0.000   0.000  101.67   97.83    0.08   97.76    0.00    0.00 -99.000 -99.000 -99.000   0.622   0.466   0.240   0.336   0.229   0.104   0.095   0.174   0.143   0.359   0.002   0.119
 2022 142    22  19.60  17.40  -3.30 -99.000   3.961   0.017   3.944   3.961   0.017   3.944   0.000   0.000  105.63  101.79    0.09  101.70    0.00    0.00 -99.000 -99.000 -99.000   0.871   0.656   0.337   0.473   0.323   0.146   0.133   0.247   0.214   0.544   0.002   0.121
 2022 143    23   4.20  12.30   7.10 -99.000   0.874   0.001   0.873   0.874   0.001   0.873   0.000   0.000  106.50  102.67    0.09  102.57    0.00    0.00 -99.000 -99.000 -99.000   0.189   0.143   0.074   0.103   0.071   0.032   0.029   0.054   0.048   0.130   0.000   0.124
 2022 144    24   8.60  13.00   6.60 -99.000   1.799   0.002   1.798   1.799   0.002   1.798   0.000   0.000  108.30  104.47    0.10  104.37    0.00    0.00 -99.000 -99.000 -99.000   0.390   0.292   0.150   0.210   0.143   0.065   0.059   0.110   0.096   0.283   0.000   0.123
 2022 145    25  26.50  19.00   7.70 -99.000   6.112   0.008   6.104   6.112   0.008   6.104   0.000   0.000  114.42  110.58    0.10  110.47    0.00    0.00 -99.000 -99.000 -99.000   1.316   0.987   0.507   0.711   0.485   0.219   0.200   0.371   0.327   0.981   0.001   0.122
 2022 146    26  28.80  27.30   3.70 -99.000   7.138   0.018   7.121   7.138   0.018   7.121   0.000   0.000  121.55  117.72    0.12  117.60    0.00    0.00 -99.000 -99.000 -99.000   1.508   1.150   0.593   0.833   0.569   0.257   0.235   0.436   0.384   1.156   0.002   0.124
 2022 147    27  27.00  32.90   6.80 -99.000   7.337   0.031   7.306   7.337   0.031   7.306   0.000   0.000  128.89  125.05    0.15  124.90    0.00    0.00 -99.000 -99.000 -99.000   1.543   1.180   0.609   0.855   0.585   0.265   0.241   0.448   0.392   1.188   0.003   0.128
 2022 148    28  23.90  31.00  11.00 -99.000   6.557   0.048   6.508   6.557   0.048   6.508   0.000   0.000  135.45  131.61    0.20  131.41    0.00    0.00 -99.000 -99.000 -99.000   1.374   1.051   0.543   0.763   0.521   0.236   0.215   0.399   0.347   1.059   0.005   0.134
 2022 149    29  21.10  28.30  15.00 -99.000   5.779   0.103   5.675   5.779   0.103   5.675   0.000   0.000  141.23  137.39    0.30  137.08    0.00    0.00 -99.000 -99.000 -99.000   1.202   0.917   0.473   0.665   0.454   0.205   0.187   0.348   0.301   0.922   0.010   0.145
 2022 150    30  16.50  18.60  10.60 -99.000   3.854   0.114   3.740   3.854   0.114   3.740   0.000   0.000  145.08  141.24    0.42  140.82    0.00    0.00 -99.000 -99.000 -99.000   0.821   0.560   0.321   0.409   0.296   0.141   0.129   0.229   0.203   0.632   0.011   0.170
 2022 151    31  15.50  20.40   8.40 -99.000   3.635   0.128   3.506   3.634   0.128   3.506   0.000   0.000  148.72  144.88    0.55  144.33    0.00    0.00 -99.000 -99.000 -99.000   0.760   0.541   0.304   0.396   0.274   0.126   0.115   0.213   0.187   0.589   0.013   0.193
 2022 152    32  20.60  20.00   8.60 -99.000   4.688   0.194   4.493   4.687   0.194   4.493   0.000   0.000  153.40  149.56    0.74  148.82    0.00    0.00 -99.000 -99.000 -99.000   0.946   0.716   0.395   0.524   0.350   0.156   0.142   0.273   0.237   0.754   0.019   0.219
 2022 153    33  23.50  24.20   5.00 -99.000   5.381   0.257   5.123   5.380   0.257   5.123   0.000   0.000  158.79  154.94    1.00  153.95    0.00    0.00 -99.000 -99.000 -99.000   1.044   0.836   0.456   0.614   0.399   0.172   0.157   0.313   0.270   0.862   0.026   0.263
 2022 154    34  24.50  25.90   7.70 -99.000   5.799   0.321   5.477   5.797   0.321   5.477   0.000   0.000  164.58  160.74    1.32  159.42    0.00    0.00 -99.000 -99.000 -99.000   1.076   0.909   0.492   0.672   0.428   0.181   0.165   0.337   0.288   0.928   0.032   0.319
 2022 155    35  25.90  30.40  11.20 -99.000   6.599   0.432   6.165   6.004   0.432   5.572   0.000   0.000  171.18  166.74    1.75  164.99    0.00    0.00 -99.000 -99.000 -99.000   1.015   0.938   0.511   0.704   0.443   0.185   0.169   0.349   0.298   0.962   0.043   0.380
 2022 156    36  19.80  29.30  12.60 -99.000   4.988   0.403   4.583   4.986   0.403   4.583   0.000   0.000  176.17  171.73    2.15  169.58    0.00    0.00 -99.000 -99.000 -99.000   0.752   0.770   0.429   0.600   0.374   0.155   0.141   0.295   0.252   0.815   0.040   0.446
 2022 157    37  27.20  29.20  14.10 -99.000   6.873   0.658   6.211   5.738   0.658   5.081   0.000   0.000  183.04  177.47    2.81  174.66    0.00    0.00 -99.000 -99.000 -99.000   0.812   0.832   0.473   0.671   0.421   0.172   0.159   0.333   0.284   0.924   0.066   0.499
 2022 158    38   9.40  23.50  11.40 -99.000   2.165   0.243   1.920   2.164   0.243   1.920   0.000   0.000  185.21  179.63    3.05  176.58    0.00    0.00 -99.000 -99.000 -99.000   0.469   0.295   0.155   0.225   0.142   0.058   0.054   0.113   0.096   0.314   0.024   0.593
 2022 159    39  29.80  24.90  11.00 -99.000   7.304   0.890   6.408   6.824   0.890   5.934   0.000   0.000  192.51  186.46    3.94  182.51    0.00    0.00 -99.000 -99.000 -99.000   1.628   0.940   0.465   0.648   0.411   0.169   0.156   0.328   0.280   0.910   0.089   0.608
 2022 160    40  17.90  26.70  15.10 -99.000   4.522   0.608   3.911   4.518   0.608   3.911   0.000   0.000  197.04  190.97    4.55  186.42    0.00    0.00 -99.000 -99.000 -99.000   0.942   0.638   0.326   0.442   0.283   0.117   0.108   0.227   0.194   0.634   0.061   0.721
 2022 161    41  26.20  29.60  13.10 -99.000   6.684   0.926   5.753   1.837   0.926   0.910   0.000   0.000  203.72  192.81    5.48  187.33    0.00    0.00 -99.000 -99.000 -99.000   0.765   0.093   0.021   0.015   0.006   0.002   0.001   0.002   0.002   0.003   0.093   0.821
 2022 162    42  27.30  32.70  19.40 -99.000   7.505   1.074   6.426   1.897   1.074   0.823   0.000   0.000  211.22  194.71    6.55  188.16    0.00    0.00 -99.000 -99.000 -99.000   0.681   0.091   0.020   0.015   0.006   0.002   0.001   0.002   0.002   0.003   0.107   0.934
 2022 163    43  26.90  34.60  18.80 -99.000   7.461   1.149   6.307   1.890   1.149   0.741   0.000   0.000  218.69  196.60    7.70  188.90    0.00    0.00 -99.000 -99.000 -99.000   0.602   0.088   0.020   0.015   0.006   0.002   0.001   0.002   0.002   0.003   0.115   1.060
 2022 164    44  27.40  41.20  21.10 -99.000  10.502   1.754   8.740   2.420   1.754   0.665   0.000   0.000  229.19  199.02    9.45  189.56    0.00    0.00 -99.000 -99.000 -99.000   0.529   0.086   0.019   0.015   0.006   0.002   0.001   0.002   0.002   0.003   0.175   1.189
 2022 165    45  27.30  30.00  18.10 -99.000   7.072   1.289   5.777   1.874   1.289   0.585   0.000   0.000  236.26  200.89   10.74  190.15    0.00    0.00 -99.000 -99.000 -99.000   0.454   0.082   0.019   0.015   0.006   0.002   0.001   0.002   0.002   0.003   0.129   1.262
 2022 166    46  29.00  30.60  14.00 -99.000   7.298   1.404   5.887   1.929   1.404   0.524   0.000   0.000  243.56  202.82   12.15  190.67    0.00    0.00 -99.000 -99.000 -99.000   0.397   0.079   0.018   0.015   0.006   0.002   0.001   0.002   0.002   0.003   0.140   1.258
 2022 167    47  28.90  31.60  11.20 -99.000   7.175   1.445   5.721   1.925   1.445   0.480   0.000   0.000  250.73  204.75   13.59  191.15    0.00    0.00 -99.000 -99.000 -99.000   0.356   0.075   0.017   0.015   0.006   0.002   0.001   0.002   0.002   0.003   0.145   1.369
 2022 168    48  27.80  38.90  19.80 -99.000   9.308   1.944   7.356   2.386   1.944   0.442   0.000   0.000  260.04  207.13   15.54  191.60    0.00    0.00 -99.000 -99.000 -99.000   0.323   0.072   0.017   0.014   0.006   0.002   0.001   0.002   0.002   0.003   0.194   1.513
 2022 169    49  28.20  37.20  24.40 -99.000   8.905   2.018   6.879   2.424   2.018   0.406   0.000   0.000  268.95  209.56   17.56  192.00    0.00    0.00 -99.000 -99.000 -99.000   0.293   0.067   0.016   0.014   0.006   0.002   0.001   0.002   0.002   0.003   0.202   1.641
 2022 170    50  26.40  36.60  24.50 -99.000   8.053   1.988   6.057   2.358   1.984   0.374   0.000   0.000  277.00  211.91   19.54  192.38    0.00    0.00 -99.000 -99.000 -99.000   0.267   0.063   0.015   0.014   0.006   0.002   0.001   0.002   0.002   0.003   0.198   1.777
 2022 171    51  21.80  36.60  23.00 -99.000   6.559   1.742   4.810   2.087   1.742   0.345   0.000   0.000  283.56  214.00   21.28  192.72    0.00    0.00 -99.000 -99.000 -99.000   0.243   0.058   0.014   0.014   0.005   0.002   0.001   0.002   0.002   0.003   0.174   1.919
 2022 172    52  16.70  27.20  12.00 -99.000   3.890   1.086   2.798   1.405   1.086   0.319   0.000   0.000  287.45  215.41   22.37  193.04    0.00    0.00 -99.000 -99.000 -99.000   0.222   0.054   0.013   0.013   0.005   0.002   0.001   0.002   0.002   0.003   0.109   1.964
 2022 173    53  23.10  30.80   9.10 -99.000   5.481   1.542   3.930   1.838   1.542   0.296   0.000   0.000  292.93  217.24   23.91  193.34    0.00    0.00 -99.000 -99.000 -99.000   0.203   0.052   0.013   0.013   0.005   0.002   0.001   0.002   0.002   0.003   0.154   1.820
 2022 174    54  28.80  35.40  18.20 -99.000   7.818   2.229   5.579   2.504   2.229   0.275   0.000   0.000  300.75  219.75   26.14  193.61    0.00    0.00 -99.000 -99.000 -99.000   0.185   0.050   0.012   0.013   0.005   0.002   0.001   0.002   0.002   0.003   0.223   1.780
 2022 175    55  23.10  31.90  19.40 -99.000   5.971   1.770   4.193   2.038   1.770   0.268   0.000   0.000  306.72  221.79   27.91  193.88    0.00    0.00 -99.000 -99.000 -99.000   0.182   0.047   0.011   0.012   0.005   0.002   0.001   0.002   0.002   0.003   0.177   1.413
 2022 176    56  22.80  24.90  15.30 -99.000   5.274   1.616   3.649   1.878   1.616   0.262   0.000   0.000  311.99  223.66   29.52  194.14    0.00    0.00 -99.000 -99.000 -99.000   0.179   0.046   0.010   0.012   0.005   0.002   0.001   0.002   0.002   0.003   0.162   1.343
 2022 177    57  21.10  24.40   7.80 -99.000   4.554   1.406   3.139   1.651   1.406   0.244   0.000   0.000  316.55  225.31   30.93  194.39    0.00    0.00 -99.000 -99.000 -99.000   0.163   0.044   0.010   0.012   0.005   0.002   0.001   0.002   0.002   0.003   0.141   1.357
 2022 178    58  28.70  29.30  13.40 -99.000   6.877   2.110   4.756   2.338   2.110   0.228   0.000   0.000  323.42  227.65   33.04  194.61    0.00    0.00 -99.000 -99.000 -99.000   0.149   0.043   0.010   0.011   0.005   0.002   0.001   0.002   0.002   0.003   0.211   1.398
 2022 179    59  26.10  35.00  12.80 -99.000   6.630   2.053   4.567   2.266   2.053   0.213   0.000   0.000  330.05  229.92   35.09  194.83    0.00    0.00 -99.000 -99.000 -99.000   0.136   0.042   0.009   0.011   0.005   0.002   0.001   0.002   0.002   0.003   0.205   1.461
 2022 180    60  24.30  38.10  19.80 -99.000   7.628   2.409   5.209   2.608   2.409   0.199   0.000   0.000  337.68  232.53   37.50  195.03    0.00    0.00 -99.000 -99.000 -99.000   0.124   0.041   0.009   0.010   0.005   0.002   0.001   0.002   0.002   0.003   0.241   1.515
 2022 181    61  20.00  34.10  19.90 -99.000   5.276   1.718   3.550   1.904   1.718   0.186   0.000   0.000  342.96  234.43   39.22  195.21    0.00    0.00 -99.000 -99.000 -99.000   0.113   0.040   0.009   0.009   0.005   0.002   0.001   0.002   0.002   0.003   0.172   1.546
 2022 182    62  21.10  30.70  17.70 -99.000   5.275   1.759   3.508   1.933   1.759   0.175   0.000   0.000  348.23  236.36   40.98  195.39    0.00    0.00 -99.000 -99.000 -99.000   0.103   0.039   0.009   0.009   0.004   0.002   0.001   0.002   0.002   0.003   0.176   1.567
 2022 183    63  23.20  28.40  15.90 -99.000   5.572   1.877   3.685   5.562   1.877   3.685   0.000   0.000  353.80  241.93   42.85  199.07    0.00    0.00 -99.000 -99.000 -99.000   1.079   0.484   0.153   0.269   0.246   0.119   0.117   0.260   0.224   0.733   0.188   1.607
 2022 184    64  24.00  34.50  20.60 -99.000   6.843   2.313   4.520   6.833   2.313   4.520   0.000   0.000  360.65  248.76   45.17  203.59    0.00    0.00 -99.000 -99.000 -99.000   1.852   0.715   0.157   0.230   0.220   0.109   0.107   0.241   0.208   0.681   0.231   2.719
 2022 185    65  25.80  37.00  19.40 -99.000   8.117   2.800   5.305   8.105   2.800   5.305   0.000   0.000  368.76  256.86   47.97  208.90    0.00    0.00 -99.000 -99.000 -99.000   1.784   0.969   0.273   0.283   0.274   0.137   0.135   0.308   0.267   0.875   0.280   2.825
 2022 186    66  24.40  36.90  19.90 -99.000   7.488   2.639   4.838   7.477   2.639   4.838   0.000   0.000  376.25  264.34   50.61  213.73    0.00    0.00 -99.000 -99.000 -99.000   1.643   0.993   0.347   0.230   0.216   0.110   0.110   0.252   0.219   0.719   0.264   3.438
 2022 187    67  14.10  28.80  18.80 -99.000   3.702   1.330   2.365   3.695   1.330   2.365   0.000   0.000  379.95  268.04   51.94  216.10    0.00    0.00 -99.000 -99.000 -99.000   0.761   0.522   0.213   0.117   0.097   0.050   0.050   0.117   0.102   0.335   0.133   3.558
 2022 188    68  20.90  27.70  20.40 -99.000   5.419   1.962   3.447   5.410   1.962   3.447   0.000   0.000  385.37  273.45   53.90  219.55    0.00    0.00 -99.000 -99.000 -99.000   1.166   0.717   0.332   0.193   0.133   0.069   0.069   0.162   0.141   0.465   0.196   4.132
 2022 189    69  27.30  31.70  18.70 -99.000   7.395   2.735   4.647   7.382   2.735   4.647   0.000   0.000  392.77  280.83   56.63  224.19    0.00    0.00 -99.000 -99.000 -99.000   1.446   0.903   0.447   0.364   0.186   0.098   0.099   0.231   0.202   0.668   0.273   4.133
 2022 190    70  27.10  36.40  19.60 -99.000   8.078   3.050   5.015   8.065   3.050   5.015   0.000   0.000  400.85  288.89   59.68  229.21    0.00    0.00 -99.000 -99.000 -99.000   1.339   0.944   0.481   0.520   0.212   0.114   0.115   0.270   0.237   0.784   0.305   4.157
 2022 191    71  27.40  37.80  22.30 -99.000   8.826   3.376   5.437   8.554   3.376   5.178   0.000   0.000  409.67  297.45   63.06  234.39    0.00    0.00 -99.000 -99.000 -99.000   1.301   0.954   0.488   0.573   0.221   0.121   0.122   0.291   0.256   0.850   0.338   4.171
 2022 192    72  27.80  27.70  15.10 -99.000   6.748   2.594   4.141   3.476   2.594   0.883   0.000   0.000  416.42  300.92   65.65  235.27    0.00    0.00 -99.000 -99.000 -99.000   0.744   0.093   0.021   0.014   0.003   0.001   0.001   0.002   0.001   0.003   0.259   4.008
 2022 193    73  26.80  30.50  12.60 -99.000   6.577   2.500   4.064   3.303   2.500   0.803   0.000   0.000  423.00  304.23   68.15  236.07    0.00    0.00 -99.000 -99.000 -99.000   0.670   0.088   0.020   0.013   0.003   0.001   0.001   0.002   0.001   0.003   0.250   4.083
 2022 194    74  25.00  36.10  17.90 -99.000   7.095   2.664   4.419   3.394   2.664   0.731   0.000   0.000  430.09  307.62   70.82  236.80    0.00    0.00 -99.000 -99.000 -99.000   0.603   0.083   0.019   0.013   0.003   0.001   0.001   0.002   0.001   0.003   0.266   4.133
 2022 195    75  29.30  38.90  22.10 -99.000   9.845   3.675   6.155   4.337   3.675   0.662   0.000   0.000  439.94  311.96   74.49  237.47    0.00    0.00 -99.000 -99.000 -99.000   0.541   0.079   0.018   0.013   0.003   0.001   0.001   0.002   0.001   0.003   0.368   4.125
 2022 196    76  27.20  34.70  17.50 -99.000   7.183   2.673   4.497   3.248   2.673   0.574   0.000   0.000  447.12  315.20   77.16  238.04    0.00    0.00 -99.000 -99.000 -99.000   0.462   0.072   0.017   0.012   0.003   0.001   0.001   0.002   0.001   0.003   0.267   4.123
 2022 197    77  20.10  34.50  19.70 -99.000   5.365   1.982   3.374   2.486   1.982   0.504   0.000   0.000  452.48  317.69   79.15  238.54    0.00    0.00 -99.000 -99.000 -99.000   0.398   0.068   0.016   0.012   0.003   0.001   0.001   0.002   0.001   0.003   0.198   3.824
 2022 198    78  27.40  34.10  17.00 -99.000   7.135   2.607   4.516   3.067   2.607   0.460   0.000   0.000  459.62  320.76   81.75  239.00    0.00    0.00 -99.000 -99.000 -99.000   0.358   0.064   0.015   0.011   0.003   0.001   0.001   0.002   0.001   0.003   0.261   3.751
 2022 199    79  28.30  38.90  19.40 -99.000   9.257   3.352   5.892   3.771   3.352   0.420   0.000   0.000  468.88  324.53   85.11  239.42    0.00    0.00 -99.000 -99.000 -99.000   0.324   0.059   0.014   0.011   0.003   0.001   0.001   0.002   0.001   0.003   0.335   3.751
 2022 200    80  29.20  34.60  15.30 -99.000   7.534   2.710   4.812   3.091   2.710   0.381   0.000   0.000  476.41  327.62   87.82  239.80    0.00    0.00 -99.000 -99.000 -99.000   0.294   0.053   0.012   0.011   0.003   0.001   0.001   0.002   0.001   0.003   0.271   3.416
 2022 201    81  28.10  34.20  13.20 -99.000   7.104   2.531   4.561   2.874   2.525   0.349   0.000   0.000  483.52  330.49   90.34  240.15    0.00    0.00 -99.000 -99.000 -99.000   0.268   0.049   0.011   0.010   0.003   0.001   0.001   0.002   0.001   0.003   0.253   2.587
 2022 202    82  25.50  38.00  17.10 -99.000   7.834   2.763   5.059   6.950   2.763   4.187   0.000   0.000  491.35  337.44   93.10  244.34    0.00    0.00 -99.000 -99.000 -99.000   1.288   0.540   0.223   0.382   0.182   0.097   0.105   0.277   0.251   0.842   0.276   2.176
 2022 203    83  27.40  34.80  19.40 -99.000   7.671   2.693   4.966   7.317   2.693   4.624   0.000   0.000  499.02  344.76   95.80  248.96    0.00    0.00 -99.000 -99.000 -99.000   1.692   0.662   0.204   0.344   0.176   0.092   0.101   0.272   0.247   0.835   0.269   3.400
 2022 204    84  23.60  36.20  23.40 -99.000   7.141   2.431   4.700   6.622   2.431   4.191   0.000   0.000  506.16  351.38   98.23  253.16    0.00    0.00 -99.000 -99.000 -99.000   1.329   0.655   0.194   0.317   0.171   0.089   0.098   0.267   0.244   0.827   0.243   3.281
 2022 205    85  24.80  28.80  17.20 -99.000   6.244   2.059   4.174   2.854   2.059   0.795   0.000   0.000  512.41  354.24  100.29  253.95    0.00    0.00 -99.000 -99.000 -99.000   0.706   0.063   0.009   0.007   0.002   0.001   0.001   0.002   0.001   0.003   0.206   2.721
 2022 206    86   5.60  22.10  18.10 -99.000   1.309   0.418   0.888   1.306   0.418   0.888   0.000   0.000  513.71  355.54  100.70  254.84    0.00    0.00 -99.000 -99.000 -99.000   0.279   0.129   0.041   0.064   0.037   0.019   0.021   0.059   0.054   0.185   0.042   2.597
 2022 207    87  15.30  27.40  17.90 -99.000   3.871   1.199   2.665   3.865   1.199   2.665   0.000   0.000  517.59  359.41  101.90  257.50    0.00    0.00 -99.000 -99.000 -99.000   0.886   0.397   0.118   0.183   0.108   0.054   0.060   0.170   0.156   0.533   0.120   2.545
 2022 208    88  16.60  28.80  13.60 -99.000   4.101   1.231   2.864   4.094   1.231   2.864   0.000   0.000  521.69  363.50  103.14  260.37    0.00    0.00 -99.000 -99.000 -99.000   1.086   0.520   0.133   0.160   0.095   0.048   0.053   0.151   0.139   0.477   0.123   2.442
 2022 209    89  18.40  24.40  15.60 -99.000   4.559   1.326   3.225   4.551   1.326   3.225   0.000   0.000  526.25  368.05  104.46  263.59    0.00    0.00 -99.000 -99.000 -99.000   1.181   0.699   0.191   0.162   0.098   0.049   0.054   0.155   0.143   0.493   0.133   3.276
 2022 210    90  15.40  25.90  16.40 -99.000   3.843   1.084   2.752   3.837   1.084   2.752   0.000   0.000  530.09  371.89  105.55  266.34    0.00    0.00 -99.000 -99.000 -99.000   0.874   0.594   0.217   0.148   0.090   0.045   0.049   0.143   0.133   0.458   0.108   3.224
 2022 211    91  27.20  28.70  15.30 -99.000   6.876   1.883   4.983   6.460   1.883   4.577   0.000   0.000  536.96  378.35  107.43  270.92    0.00    0.00 -99.000 -99.000 -99.000   1.319   0.979   0.421   0.256   0.156   0.078   0.085   0.250   0.232   0.801   0.188   3.183
 2022 212    92  21.80  33.20  17.70 -99.000   5.843   1.553   4.283   2.389   1.553   0.836   0.000   0.000  542.81  380.74  108.98  271.76    0.00    0.00 -99.000 -99.000 -99.000   0.706   0.095   0.019   0.006   0.002   0.001   0.001   0.002   0.001   0.003   0.155   3.123
 2022 213    93  25.60  37.30  15.00 -99.000   7.740   1.997   5.734   2.748   1.997   0.750   0.000   0.000  550.55  383.49  110.98  272.51    0.00    0.00 -99.000 -99.000 -99.000   0.625   0.091   0.018   0.006   0.002   0.001   0.001   0.002   0.001   0.003   0.200   3.098
 2022 214    94  24.00  38.90  19.30 -99.000   8.068   2.022   6.038   2.753   2.022   0.731   0.000   0.000  558.61  386.24  113.00  273.24    0.00    0.00 -99.000 -99.000 -99.000   0.611   0.086   0.017   0.006   0.002   0.001   0.001   0.002   0.001   0.003   0.202   3.071
 2022 215    95  25.50  33.20  18.40 -99.000   6.852   1.667   5.177   2.378   1.667   0.712   0.000   0.000  565.47  388.62  114.67  273.95    0.00    0.00 -99.000 -99.000 -99.000   0.598   0.082   0.016   0.006   0.002   0.001   0.001   0.002   0.001   0.003   0.167   3.052
 2022 216    96  25.50  34.60  16.20 -99.000   6.825   1.611   5.207   2.244   1.611   0.633   0.000   0.000  572.29  390.86  116.28  274.58    0.00    0.00 -99.000 -99.000 -99.000   0.525   0.078   0.015   0.006   0.002   0.001   0.001   0.002   0.001   0.003   0.161   3.072
 2022 217    97  25.10  37.50  22.10 -99.000   8.003   1.835   6.161   2.397   1.835   0.562   0.000   0.000  580.29  393.26  118.11  275.15    0.00    0.00 -99.000 -99.000 -99.000   0.458   0.074   0.014   0.006   0.002   0.001   0.001   0.002   0.001   0.003   0.183   3.072
 2022 218    98  21.70  30.30  21.50 -99.000   5.727   1.274   4.447   1.768   1.274   0.494   0.000   0.000  586.02  395.03  119.39  275.64    0.00    0.00 -99.000 -99.000 -99.000   0.396   0.070   0.013   0.006   0.002   0.001   0.001   0.002   0.001   0.003   0.127   2.772
 2022 219    99   7.20  22.30  14.20 -99.000   1.635   0.353   1.280   0.839   0.353   0.486   0.000   0.000  587.66  395.87  119.74  276.13    0.00    0.00 -99.000 -99.000 -99.000   0.392   0.066   0.013   0.006   0.002   0.001   0.001   0.002   0.001   0.003   0.035   2.710
 2022 220   100  26.10  30.70   8.50 -99.000   6.286   1.319   4.959   1.804   1.319   0.485   0.000   0.000  593.94  397.67  121.06  276.61    0.00    0.00 -99.000 -99.000 -99.000   0.392   0.065   0.013   0.006   0.002   0.001   0.001   0.002   0.001   0.003   0.132   2.761
 2022 221   101  25.50  34.70  16.50 -99.000   6.807   1.390   5.411   1.832   1.390   0.442   0.000   0.000  600.75  399.50  122.45  277.05    0.00    0.00 -99.000 -99.000 -99.000   0.354   0.061   0.012   0.006   0.002   0.001   0.001   0.002   0.001   0.003   0.139   2.709
 2022 222   102  25.70  36.20  15.80 -99.000   7.305   1.451   5.848   1.856   1.451   0.405   0.000   0.000  608.06  401.36  123.90  277.46    0.00    0.00 -99.000 -99.000 -99.000   0.321   0.058   0.011   0.006   0.002   0.001   0.001   0.002   0.001   0.003   0.145   2.236
 2022 223   103  24.80  36.00  15.30 -99.000   6.942   1.341   5.594   1.711   1.341   0.371   0.000   0.000  615.00  403.07  125.24  277.83    0.00    0.00 -99.000 -99.000 -99.000   0.292   0.053   0.011   0.006   0.002   0.001   0.001   0.002   0.001   0.003   0.134   1.773