*GROWTH ASPECTS OUTPUT FILE

*DSSAT Cropping System Model Ver. 4.8.2.000 -release  JAN 24, 2025 01:19:59

*RUN   1        : silt_loam_13in_irr        MZCER048 UNLI2201    1
 MODEL          : MZCER048 - Maize
 EXPERIMENT     : UNLI2201 MZ IRRIGATED MAIZE PRODUCTION
 DATA PATH      :
 TREATMENT  1   : silt_loam_13in_irr        MZCER048
  
!                                                                                                                                                                                                                                      Root Dens. (cm/cm3) by soil depth (cm):
!                                                                                                                                                                                                                                      0-5    5-15   15-23   23-38   38-53   53-61   61-69   69-84   84-99  99-160
@YEAR DOY   DAS   DAP   L#SD   GSTD   LAID   LWAD   SWAD   GWAD   RWAD   VWAD   CWAD   G#AD   GWGD   HIAD   PWAD   P#AD   WSPD   WSGD   NSTD   EWSD  PST1A  PST2A   KSTD   LN%D   SH%D   HIPD   PWDD   PWTD     SLAD   CHTD   CWID   RDPD    RL1D    RL2D    RL3D    RL4D    RL5D    RL6D    RL7D    RL8D    RL9D   RL10D   CDAD   LDAD   SDAD   SNW0C   SNW1C  DTTD
 2022 129     9     0    0.0      0   0.00      0      0      0      0      0      0      0    0.0  0.000      0      0  0.000  0.000  0.000  0.000  0.000  0.000  0.000   0.00   0.00   0.00      0      0      0.0   0.00   0.00   0.05    0.00    0.00    0.00    0.00    0.00    0.00    0.00    0.00    0.00    0.00      0      0      0       0       0 10.11
 2022 130    10     1    0.0      0   0.00      0      0      0      0      0      0      0    0.0  0.000      0      0  0.000  0.000  0.000  0.000  0.000  0.000  0.000   0.00   0.00   0.00      0      0      0.0   0.00   0.00   0.06    0.00    0.00    0.00    0.00    0.00    0.00    0.00    0.00    0.00    0.00      0      0      0       0       0  9.87
 2022 131    11     2    0.0      0   0.00      0      0      0      0      0      0      0    0.0  0.000      0      0  0.000  0.000  0.000  0.000  0.000  0.000  0.000   0.00   0.00   0.00      0      0      0.0   0.00   0.00   0.09    0.00    0.00    0.00    0.00    0.00    0.00    0.00    0.00    0.00    0.00      0      0      0       0       0 16.47
 2022 132    12     3    0.0      0   0.00      0      0      0      0      0      0      0    0.0  0.000      0      0  0.000  0.000  0.000  0.000  0.000  0.000  0.000   0.00   0.00   0.00      0      0      0.0   0.00   0.00   0.11    0.00    0.00    0.00    0.00    0.00    0.00    0.00    0.00    0.00    0.00      0      0      0       0       0 14.94
 2022 133    13     4    0.0      0   0.00      0      0      0      0      0      0      0    0.0  0.000      0      0  0.000  0.000  0.000  0.000  0.000  0.000  0.000   0.00   0.00   0.00      0      0      0.0   0.00   0.00   0.13    0.00    0.00    0.00    0.00    0.00    0.00    0.00    0.00    0.00    0.00      0      0      0       0       0  9.12
 2022 134    14     5    0.0      0   0.00      0      0      0      0      0      0      0    0.0  0.000      0      0  0.000  0.000  0.000  0.000  0.000  0.000  0.000   0.00   0.00   0.00      0      0      0.0   0.00   0.00   0.14    0.00    0.00    0.00    0.00    0.00    0.00    0.00    0.00    0.00    0.00      0      0      0       0       0  8.88
 2022 135    15     6    0.0      0   0.00      0      0      0      0      0      0      0    0.0  0.000      0      0  0.000  0.000  0.000  0.000  0.000  0.000  0.000   0.00   0.00   0.00      0      0      0.0   0.00   0.00   0.15    0.00    0.00    0.00    0.00    0.00    0.00    0.00    0.00    0.00    0.00      0      0      0       0       0  9.67
 2022 136    16     7    0.0      0   0.00      0      0      0      0      0      0      0    0.0  0.000      0      0  0.000  0.000  0.000  0.000  0.000  0.000  0.000   0.00   0.00   0.00      0      0      0.0   0.00   0.00   0.17    0.00    0.00    0.00    0.00    0.00    0.00    0.00    0.00    0.00    0.00      0      0      0       0       0 12.79
 2022 137    17     8    1.0      1   0.00     16     16      0     16     32     32      0    0.0  0.000      0      0  0.000  0.000  0.012  0.000  0.000  0.000  0.000   4.40   0.00   0.00      0      0     23.0   0.00   0.00   0.19    0.32    0.16    0.06    0.00    0.00    0.00    0.00    0.00    0.00    0.00      0      0      0       0       0 15.27
 2022 138    18     9    2.0      1   0.01     16     16      0     17     32     32      0    0.0  0.000      0      0  0.000  0.000  0.011  0.000  0.000  0.000  0.000   4.40   0.00   0.00      0      0     42.5   0.00   0.00   0.20    0.32    0.17    0.06    0.00    0.00    0.00    0.00    0.00    0.00    0.00      0      0      0       0       0 14.32
 2022 139    19    10    2.0      1   0.01     16     16      0     18     32     32      0    0.0  0.000      0      0  0.000  0.000  0.005  0.000  0.000  0.000  0.000   4.40   0.00   0.00      0      0     64.2   0.00   0.00   0.22    0.33    0.17    0.07    0.00    0.00    0.00    0.00    0.00    0.00    0.00      0      0      0       0       0 14.14
 2022 140    20    11    2.0      1   0.01     16     16      0     18     32     32      0    0.0  0.000      0      0  0.000  0.000  0.005  0.000  0.000  0.000  0.000   4.40   0.00   0.00      0      0     66.3   0.00   0.00   0.22    0.33    0.18    0.07    0.00    0.00    0.00    0.00    0.00    0.00    0.00      0      0      0       0       0  1.45
 2022 141    21    12    2.0      1   0.01     16     16      0     18     32     32      0    0.0  0.000      0      0  0.000  0.000  0.004  0.000  0.000  0.000  0.000   4.40   0.00   0.00      0      0     38.3   0.00   0.00   0.22    0.34    0.18    0.07    0.00    0.00    0.00    0.00    0.00    0.00    0.00      0      0      0       0       0  1.03
 2022 142    22    13    2.0      1   0.00     16     16      0     19     32     32      0    0.0  0.000      0      0  0.000  0.000  0.003  0.000  0.000  0.000  0.000   4.40   0.00   0.00      0      0      5.7   0.00   0.00   0.22    0.34    0.18    0.08    0.00    0.00    0.00    0.00    0.00    0.00    0.00      0      0      0       0       0  2.61
 2022 143    23    14    2.0      1   0.00     16     16      0     19     32     32      0    0.0  0.000      0      0  0.000  0.000  0.003  0.000  0.000  0.000  0.000   4.40   0.00   0.00      0      0      8.4   0.00   0.00   0.22    0.34    0.18    0.08    0.00    0.00    0.00    0.00    0.00    0.00    0.00      0      0      0       0       0  1.70
 2022 144    24    15    3.0      1   0.00     16     16      0     19     32     32      0    0.0  0.000      0      0  0.000  0.000  0.002  0.000  0.000  0.000  0.000   4.40   0.00   0.00      0      0     11.4   0.00   0.00   0.23    0.33    0.18    0.08    0.00    0.00    0.00    0.00    0.00    0.00    0.00      0      0      0       0       0  1.94
 2022 145    25    16    3.0      1   0.00     16     16      0     19     32     32      0    0.0  0.000      0      0  0.000  0.000  0.000  0.000  0.000  0.000  0.000   4.40   0.00   0.00      0      0     22.5   0.00   0.00   0.23    0.34    0.18    0.08    0.00    0.00    0.00    0.00    0.00    0.00    0.00      0      0      0       0       0  6.68
 2022 146    26    17    3.0      1   0.01     16     16      0     20     32     32      0    0.0  0.000      0      0  0.000  0.000  0.000  0.000  0.000  0.000  0.000   4.40   0.00   0.00      0      0     39.1   0.00   0.00   0.24    0.34    0.19    0.08    0.00    0.00    0.00    0.00    0.00    0.00    0.00      0      0      0       0       0 10.56
 2022 147    27    18    3.0      1   0.01     16     16      0     21     32     32      0    0.0  0.000      0      0  0.000  0.000  0.000  0.000  0.000  0.000  0.000   4.40   0.00   0.00      0      0     68.1   0.00   0.00   0.25    0.35    0.20    0.09    0.00    0.00    0.00    0.00    0.00    0.00    0.00      0      0      0       0       0 14.98
 2022 148    28    19    4.0      1   0.03     16     16      0     23     32     32      0    0.0  0.000      0      0  0.000  0.000  0.000  0.000  0.000  0.000  0.000   4.40   0.00   0.00      0      0    165.4   0.01   0.00   0.26    0.36    0.21    0.11    0.00    0.00    0.00    0.00    0.00    0.00    0.00      0      0      0       0       0 15.07
 2022 149    29    20    4.0      1   0.04     16     16      0     27     32     32      0    0.0  0.000      0      0  0.000  0.000  0.000  0.000  0.000  0.000  0.000   4.40   0.00   0.00      0      0    274.8   0.02   0.00   0.27    0.40    0.25    0.14    0.01    0.00    0.00    0.00    0.00    0.00    0.00      0      0      0       0       0 14.83
 2022 150    30    21    4.0      1   0.05     19     16      0     31     35     35      0    0.0  0.000      0      0  0.000  0.000  0.000  0.000  0.000  0.000  0.000   4.02   0.00   0.00      0      0    277.3   0.02   0.00   0.28    0.43    0.28    0.17    0.01    0.00    0.00    0.00    0.00    0.00    0.00      0      0      0       0       0  7.12
 2022 151    31    22    4.0      1   0.06     23     16      0     36     39     39      0    0.0  0.000      0      0  0.000  0.000  0.000  0.000  0.000  0.000  0.000   3.65   0.00   0.00      0      0    275.2   0.03   0.00   0.28    0.46    0.31    0.21    0.02    0.00    0.00    0.00    0.00    0.00    0.00      0      0      0       0       0  7.11
 2022 152    32    23    5.0      1   0.07     26     16      0     44     42     42      0    0.0  0.000      0      0  0.000  0.000  0.018  0.000  0.000  0.000  0.000   3.35   0.00   0.00      0      0    271.6   0.03   0.00   0.29    0.51    0.37    0.26    0.03    0.00    0.00    0.00    0.00    0.00    0.00      0      0      0       0       0  7.28
 2022 153    33    24    5.0      1   0.08     32     16      0     53     48     48      0    0.0  0.000      0      0  0.000  0.000  0.058  0.000  0.000  0.000  0.000   3.06   0.00   0.00      0      0    264.9   0.04   0.00   0.29    0.58    0.44    0.34    0.05    0.00    0.00    0.00    0.00    0.00    0.00      0      0      0       0       0  8.55
 2022 154    34    25    5.0      1   0.10     39     16      0     64     55     55      0    0.0  0.000      0      0  0.000  0.000  0.090  0.000  0.000  0.000  0.000   2.75   0.00   0.00      0      0    256.9   0.04   0.00   0.30    0.66    0.51    0.41    0.07    0.00    0.00    0.00    0.00    0.00    0.00      0      0      0       0       1 10.74
 2022 155    35    26    5.0      1   0.12     50     16      0     75     66     66      0    0.0  0.000      0      0  0.000  0.000  0.121  0.000  0.000  0.000  0.000   2.38   0.00   0.00      0      0    246.2   0.05   0.00   0.31    0.74    0.59    0.49    0.09    0.00    0.00    0.00    0.00    0.00    0.00      0      0      0       0       1 14.99
 2022 156    36    27    6.0      1   0.15     63     16      0     84     79     79      0    0.0  0.000      0      0  0.000  0.000  0.155  0.000  0.000  0.000  0.000   2.14   0.00   0.00      0      0    235.6   0.06   0.00   0.32    0.80    0.65    0.56    0.11    0.00    0.00    0.00    0.00    0.00    0.00      0      0      0       0       1 14.32
 2022 157    37    28    6.0      1   0.18     78     16      0    100     94     94      0    0.0  0.000      0      0  0.000  0.000  0.198  0.000  0.000  0.000  0.000   1.92   0.00   0.00      0      0    224.3   0.08   0.00   0.34    0.91    0.76    0.67    0.15    0.00    0.00    0.00    0.00    0.00    0.00      0      0      0       0       2 15.48
 2022 158    38    29    6.0      1   0.19     89     16      0    103    105    105      0    0.0  0.000      0      0  0.000  0.000  0.286  0.000  0.000  0.000  0.000   1.90   0.00   0.00      0      0    215.0   0.08   0.00   0.35    0.92    0.78    0.68    0.16    0.00    0.00    0.00    0.00    0.00    0.00      0      0      0       0       2  9.77
 2022 159    39    30    6.0      1   0.21    103     16      0    122    119    119      0    0.0  0.000      0      0  0.000  0.000  0.356  0.000  0.000  0.000  0.000   1.79   0.00   0.00      0      0    205.5   0.09   0.00   0.37    1.05    0.90    0.81    0.22    0.00    0.00    0.00    0.00    0.00    0.00      0      0      0       0       3 11.83
 2022 160    40    31    7.0      2   0.22    102     16      0    139    118    118      0    0.0  0.000      0      0  0.000  0.000  0.378  0.000  0.000  0.000  0.000   1.96   0.00   0.00      0      0    215.0   0.09   0.00   0.39    1.15    1.01    0.91    0.28    0.00    0.00    0.00    0.00    0.00    0.00      0      0      0       0       3 13.73
 2022 161    41    32    7.0      2   0.23    109     16      0    159    125    125      0    0.0  0.000      0      0  0.000  0.000  0.425  0.000  0.000  0.000  0.000   1.96   0.00   0.00      0      0    207.0   0.10   0.00   0.41    1.27    1.13    1.03    0.35    0.01    0.00    0.00    0.00    0.00    0.00      0      0      0       0       4 15.26
 2022 162    42    33    7.0      2   0.25    123     16      0    180    139    139      0    0.0  0.000      0      0  0.000  0.000  0.351  0.000  0.000  0.000  0.000   1.87   0.00   0.00      0      0    199.9   0.11   0.00   0.43    1.39    1.25    1.15    0.42    0.03    0.00    0.00    0.00    0.00    0.00      0      0      0       0       5 19.67
 2022 163    43    34    8.0      2   0.27    139     16      0    202    155    155      0    0.0  0.000      0      0  0.000  0.000  0.347  0.000  0.000  0.000  0.000   1.77   0.00   0.00      0      0    193.3   0.11   0.00   0.46    1.51    1.38    1.28    0.49    0.05    0.00    0.00    0.00    0.00    0.00      0      0      0       0       6 20.59
 2022 164    44    35    8.0      2   0.30    158     16      0    224    174    174      0    0.0  0.000      0      0  0.000  0.000  0.373  0.000  0.000  0.000  0.000   1.70   0.00   0.00      0      0    186.8   0.13   0.00   0.49    1.63    1.50    1.40    0.55    0.09    0.00    0.00    0.00    0.00    0.00      0      0      0       0       7 23.20
 2022 165    45    36    9.0      2   0.31    174     16      0    250    190    190      0    0.0  0.000      0      0  0.000  0.000  0.391  0.000  0.000  0.000  0.000   1.69   0.00   0.00      0      0    180.7   0.13   0.00   0.51    1.77    1.63    1.53    0.62    0.14    0.00    0.00    0.00    0.00    0.00      0      0      0       0       8 17.50
 2022 166    46    37    9.0      2   0.33    189     16      0    278    205    205      0    0.0  0.000      0      0  0.000  0.000  0.411  0.000  0.000  0.000  0.000   1.69   0.00   0.00      0      0    174.9   0.14   0.00   0.53    1.91    1.78    1.68    0.71    0.20    0.00    0.00    0.00    0.00    0.00      0      0      0       0       9 16.47
 2022 167    47    38    9.0      3   0.34    205     16      0    309    221    221      0    0.0  0.000      0      0  0.000  0.000  0.406  0.000  0.000  0.000  0.000   1.67   0.00   0.00      0      0    167.2   0.15   0.00   0.55    2.07    1.93    1.84    0.79    0.27    0.01    0.00    0.00    0.00    0.00      0      0      0       0      11 16.06
 2022 168    48    39   10.0      3   0.38    232     16      0    335    248    248      0    0.0  0.000      0      0  0.000  0.000  0.395  0.000  0.000  0.000  0.000   1.58   0.00   0.00      0      0    162.5   0.16   0.00   0.57    2.20    2.07    1.97    0.86    0.32    0.03    0.00    0.00    0.00    0.00      0      0      0       0      12 22.37
 2022 169    49    40   10.0      3   0.42    263     17      0    362    280    280      0    0.0  0.000      0      0  0.000  0.000  0.395  0.000  0.000  0.000  0.000   1.47   0.00   0.00      0      0    158.1   0.18   0.00   0.60    2.33    2.20    2.11    0.94    0.38    0.07    0.00    0.00    0.00    0.00      0      0      0       0      14 23.53
 2022 170    50    41   11.0      3   0.45    295     19      0    387    314    314      0    0.0  0.000      0      0  0.000  0.000  0.429  0.000  0.000  0.000  0.000   1.38   0.00   0.00      0      0    153.5   0.19   0.00   0.62    2.32    2.34    2.24    1.01    0.43    0.12    0.00    0.00    0.00    0.00      0      0      0       0      16 23.45
 2022 171    51    42   11.0      3   0.48    323     22      0    405    345    345      0    0.0  0.000      0      0  0.000  0.000  0.470  0.000  0.000  0.000  0.000   1.33   0.00   0.00      0      0    148.7   0.21   0.00   0.65    2.31    2.43    2.34    1.07    0.48    0.15    0.01    0.00    0.00    0.00      0      0      0       0      18 21.30
 2022 172    52    43   11.0      3   0.49    338     23      0    421    361    361      0    0.0  0.000      0      0  0.000  0.000  0.507  0.000  0.000  0.000  0.000   1.34   0.00   0.00      0      0    143.6   0.21   0.00   0.66    2.30    2.52    2.43    1.12    0.51    0.18    0.03    0.00    0.00    0.00      0      0      0       0      20 11.60
 2022 173    53    44   12.0      3   0.49    355     26      0    445    380    380      0    0.0  0.000      0      0  0.000  0.000  0.527  0.000  0.000  0.000  0.000   1.33   0.00   0.00      0      0    138.8   0.21   0.00   0.67    2.28    2.65    2.56    1.19    0.57    0.22    0.06    0.00    0.00    0.00      0      0      0       0      22 11.95
 2022 174    54    45   12.0      3   0.52    382     30      0    473    413    413      0    0.0  0.000      0      0  0.000  0.000  0.512  0.000  0.000  0.000  0.000   1.29   0.00   0.00      0      0    134.8   0.22   0.00   0.69    2.27    2.80    2.71    1.27    0.63    0.26    0.11    0.00    0.00    0.00      0      0      0       0      24 18.63
 2022 175    55    46   12.0      3   0.54    410     37      0    493    447    447      0    0.0  0.000      0      0  0.000  0.000  0.504  0.000  0.000  0.000  0.000   1.24   0.00   0.00      0      0    131.0   0.23   0.00   0.71    2.26    2.90    2.81    1.32    0.67    0.30    0.15    0.00    0.00    0.00      0      0      0       0      26 17.65
 2022 176    56    47   13.0      3   0.54    428     41      0    518    469    469      0    0.0  0.000      0      0  0.000  0.000  0.523  0.000  0.000  0.000  0.000   1.23   0.00   0.00      0      0    126.9   0.23   0.00   0.72    2.25    3.03    2.94    1.40    0.73    0.34    0.19    0.01    0.00    0.00      0      0      0       0      29 12.10
 2022 177    57    48   13.0      3   0.54    439     44      0    543    483    483      0    0.0  0.000      0      0  0.000  0.000  0.543  0.000  0.000  0.000  0.000   1.24   0.00   0.00      0      0    122.5   0.23   0.00   0.73    2.24    3.16    3.07    1.47    0.78    0.38    0.23    0.02    0.00    0.00      0      0      0       0      31  8.11
 2022 178    58    49   13.0      3   0.54    458     50      0    575    508    508      0    0.0  0.000      0      0  0.000  0.000  0.543  0.000  0.000  0.000  0.000   1.22   0.00   0.00      0      0    118.9   0.23   0.00   0.74    2.22    3.32    3.23    1.55    0.85    0.43    0.28    0.03    0.00    0.00      0      0      0       0      34 13.35
 2022 179    59    50   13.0      3   0.56    481     59      0    600    540    540      0    0.0  0.000      0      0  0.000  0.000  0.530  0.000  0.000  0.000  0.000   1.19   0.00   0.00      0      0    115.7   0.24   0.00   0.75    2.21    3.44    3.35    1.62    0.90    0.47    0.32    0.04    0.00    0.00      0      0      0       0      37 15.81
 2022 180    60    51   14.0      3   0.58    511     72      0    617    583    583      0    0.0  0.000      0      0  0.000  0.000  0.528  0.000  0.000  0.000  0.000   1.13   0.00   0.00      0      0    113.1   0.25   0.00   0.77    2.20    3.53    3.44    1.67    0.94    0.50    0.35    0.05    0.00    0.00      0      0      0       0      40 20.10
 2022 181    61    52   14.0      3   0.60    539     87      0    628    626    626      0    0.0  0.000      0      0  0.000  0.000  0.534  0.000  0.000  0.000  0.000   1.09   0.00   0.00      0      0    110.4   0.26   0.00   0.79    2.19    3.58    3.49    1.70    0.96    0.51    0.37    0.06    0.00    0.00      0      0      0       0      43 19.00
 2022 182    62    53   15.0      3   0.60    562    100      0    643    662    662      0    0.0  0.000      0      0  0.000  0.000  0.551  0.000  0.000  0.000  0.000   1.07   0.00   0.00      0      0    107.3   0.26   0.00   0.81    2.18    3.65    3.56    1.74    0.99    0.54    0.39    0.08    0.00    0.00      0      0      0       0      46 16.20
 2022 183    63    54   15.0      3   0.61    581    112      0    664    693    693      0    0.0  0.000      0      0  0.000  0.000  0.565  0.000  0.000  0.000  0.000   1.09   0.00   0.00      0      0    104.2   0.26   0.00   0.82    2.27    3.74    3.65    1.79    1.03    0.56    0.42    0.10    0.00    0.00      0      0      0       0      49 14.15
 2022 184    64    55   15.0      3   0.62    609    133      0    678    743    743      0    0.0  0.000      0      0  0.000  0.000  0.545  0.000  0.000  0.000  0.000   1.06   0.00   0.00      0      0    101.8   0.27   0.00   0.84    2.34    3.79    3.71    1.82    1.05    0.58    0.44    0.11    0.00    0.00      0      0      0       0      53 19.51
 2022 185    65    56   16.0      3   0.64    639    158      0    695    798    798      0    0.0  0.000      0      0  0.000  0.000  0.535  0.000  0.000  0.000  0.000   1.03   0.00   0.00      0      0     99.7   0.27   0.00   0.86    2.41    3.86    3.78    1.86    1.08    0.61    0.46    0.13    0.00    0.00      0      0      0       0      56 19.66
 2022 186    66    57   16.0      3   0.65    670    187      0    708    857    857      0    0.0  0.000      0      0  0.000  0.000  0.536  0.000  0.000  0.000  0.000   1.01   0.00   0.00      0      0     97.6   0.28   0.00   0.87    2.47    3.91    3.83    1.89    1.10    0.62    0.48    0.15    0.00    0.00      0      0      0       0      60 19.88
 2022 187    67    58   17.0      3   0.66    694    212      0    707    906    906      0    0.0  0.000      0      0  0.000  0.000  0.539  0.000  0.000  0.000  0.000   1.00   0.00   0.00      0      0     95.1   0.28   0.00   0.88    2.47    3.90    3.82    1.88    1.10    0.62    0.48    0.15    0.00    0.00      0      0      0       0      63 15.80
 2022 188    68    59   17.0      3   0.68    727    251      0    707    978    978      0    0.0  0.000      0      0  0.000  0.000  0.543  0.000  0.000  0.000  0.000   0.97   0.00   0.00      0      0     93.2   0.29   0.00   0.90    2.47    3.90    3.82    1.88    1.10    0.62    0.48    0.15    0.00    0.00      0      0      0       0      67 16.05
 2022 189    69    60   17.0      3   0.70    760    308      0    712   1068   1070      0    0.0  0.000      1      0  0.000  0.000  0.537  0.000  0.000  0.000  0.000   0.93   0.00   0.00      0      1     91.5   0.30   0.00   0.91    2.49    3.91    3.83    1.89    1.11    0.63    0.49    0.16    0.00    0.00      0      0      0       0      70 17.20
 2022 190    70    61   18.0      3   0.71    790    371      0    715   1161   1165      0    0.0  0.000      3      0  0.000  0.000  0.542  0.000  0.000  0.000  0.000   0.90   0.00   0.00      0      3     89.5   0.30   0.00   0.93    2.51    3.92    3.84    1.89    1.12    0.63    0.49    0.16    0.01    0.00      0      0      0       0      74 19.62
 2022 191    71    62   18.0      3   0.71    816    436      0    718   1253   1259      0    0.0  0.000      6      0  0.000  0.000  0.552  0.000  0.000  0.000  0.000   0.87   0.00   0.01      0      6     87.3   0.31   0.00   0.94    2.52    3.93    3.85    1.90    1.12    0.64    0.50    0.17    0.01    0.00      0      0      0       0      77 21.24
 2022 192    72    63   18.0      3   0.70    831    473      0    741   1304   1314      0    0.0  0.000     10      0  0.000  0.000  0.564  0.000  0.000  0.000  0.000   0.87   0.00   0.01      0     10     84.6   0.31   0.00   0.95    2.62    4.00    3.94    1.95    1.16    0.67    0.53    0.19    0.03    0.00      0      0      0       0      81 13.40
 2022 193    73    64   19.0      3   0.69    844    508      0    761   1352   1367      0    0.0  0.000     15      0  0.000  0.000  0.573  0.000  0.000  0.000  0.000   0.87   0.00   0.01      0     15     81.9   0.31   0.00   0.97    2.70    4.00    4.00    1.99    1.19    0.69    0.55    0.21    0.05    0.00      0      0      0       0      85 13.55
 2022 194    74    65   19.0      3   0.69    861    560      0    767   1421   1442      0    0.0  0.000     21      0  0.000  0.000  0.562  0.000  0.000  0.000  0.000   0.86   0.00   0.01      0     21     79.6   0.31   0.00   0.98    2.72    4.00    4.00    2.00    1.20    0.70    0.56    0.21    0.06    0.00      0      0      0       0      88 18.69
 2022 195    75    66   19.0      3   0.68    881    618      0    775   1499   1531      0    0.0  0.000     32      0  0.000  0.000  0.546  0.000  0.000  0.000  0.000   0.85   0.00   0.02      0     32     77.6   0.31   0.00   1.00    2.76    4.00    4.00    2.02    1.21    0.71    0.57    0.22    0.07    0.00      0      0      0       0      92 21.33
 2022 196    76    67   20.0      3   0.68    897    665      0    787   1561   1608      0    0.0  0.000     46      0  0.000  0.000  0.541  0.000  0.000  0.000  0.000   0.84   0.00   0.03      0     46     75.5   0.31   0.00   1.01    2.80    4.00    4.00    2.04    1.23    0.72    0.59    0.23    0.09    0.00      0      0      0       0      96 18.04
 2022 197    77    68   20.0      3   0.67    910    708      0    787   1618   1677      0    0.0  0.000     59      0  0.000  0.000  0.547  0.000  0.000  0.000  0.000   0.84   0.00   0.04      0     59     73.3   0.31   0.00   1.02    2.81    4.00    4.00    2.04    1.23    0.72    0.59    0.24    0.09    0.00      0      0      0       0     100 19.06
 2022 198    78    69   20.0      3   0.66    925    741      0    799   1666   1749      0    0.0  0.000     83      0  0.000  0.000  0.547  0.000  0.000  0.000  0.000   0.84   0.00   0.05      0     83     71.3   0.31   0.00   1.04    2.86    4.00    4.00    2.06    1.25    0.74    0.61    0.25    0.10    0.00      0      0      0       0     104 17.55
 2022 199    79    70   20.0      3   0.65    941    774      0    808   1716   1832      0    0.0  0.000    116      0  0.000  0.000  0.545  0.000  0.000  0.000  0.000   0.84   0.00   0.06      0    116     69.5   0.31   0.00   1.05    2.89    4.00    4.00    2.08    1.26    0.75    0.62    0.26    0.11    0.00      0      0      0       0     108 20.09
 2022 200    80    71   20.0      3   0.65    956    790      0    824   1745   1903      0    0.0  0.000    158      0  0.000  0.000  0.540  0.000  0.000  0.000  0.000   0.85   0.00   0.08      0    158     67.6   0.31   0.00   1.06    2.96    4.00    4.00    2.11    1.29    0.77    0.64    0.27    0.12    0.01      0      0      0       0     112 16.90
 2022 201    81    72   20.0      3   0.64    969    796      0    840   1765   1970      0    0.0  0.000    204      0  0.000  0.000  0.537  0.000  0.000  0.000  0.000   0.86   0.00   0.10      0    204     65.8   0.31   0.00   1.07    2.94    4.00    4.00    2.15    1.32    0.79    0.66    0.29    0.14    0.01      0      0      0       0     116 15.69
 2022 202    82    73   20.0      3   0.63    986    812      0    843   1798   2053      0    0.0  0.000    254      0  0.000  0.000  0.528  0.000  0.000  0.000  0.000   0.87   0.00   0.12      0    254     64.3   0.31   0.00   1.08    2.96    4.00    4.00    2.16    1.33    0.80    0.67    0.30    0.14    0.01      0      0      0       0     120 18.78
 2022 203    83    74   20.0      4   0.61    972    897      0    843   1870   2139      0    0.0  0.000    270      0  0.000  0.000  0.512  0.000  0.000  0.000  0.000   0.86   0.00   0.13      0    270     62.7   0.31   0.00   1.10    2.96    4.00    4.00    2.15    1.33    0.80    0.67    0.30    0.14    0.02      0      0      0       0     125 19.02
 2022 204    84    75   20.0      4   0.59    957    968      0    843   1925   2210      0    0.0  0.000    285      0  0.000  0.000  0.497  0.000  0.000  0.000  0.000   0.86   0.00   0.13      0    285     61.4   0.31   0.00   1.11    2.96    3.99    3.99    2.15    1.32    0.80    0.67    0.30    0.14    0.02      0      0      0       0     129 21.40
 2022 205    85    76   20.0      4   0.57    941   1039      0    842   1981   2282      0    0.0  0.000    301      0  0.000  0.000  0.498  0.000  0.000  0.000  0.000   0.86   0.00   0.13      0    301     60.1   0.31   0.00   1.12    2.96    3.99    3.99    2.15    1.32    0.80    0.67    0.30    0.14    0.02      0      0      0       0     133 15.00
 2022 206    86    77   20.0      4   0.54    924   1055      0    839   1979   2284      0    0.0  0.000    305      0  0.000  0.000  0.495  0.000  0.000  0.000  0.000   0.88   0.00   0.13      0    305     58.9   0.31   0.00   1.13    2.95    3.97    3.97    2.14    1.32    0.79    0.67    0.30    0.14    0.02      0      0      0       0     137 12.10
 2022 207    87    78   20.0      4   0.52    907   1096      0    837   2003   2318      0    0.0  0.000    315      0  0.000  0.000  0.493  0.000  0.000  0.000  0.000   0.89   0.00   0.14      0    315     57.8   0.31   0.00   1.14    2.94    3.96    3.96    2.13    1.31    0.79    0.66    0.30    0.14    0.02      0      0      0       0     141 14.65
 2022 208    88    79   20.0      4   0.51    888   1140      0    835   2028   2355      0    0.0  0.000    327      0  0.000  0.000  0.472  0.000  0.000  0.000  0.000   0.90   0.00   0.14      0    327     56.9   0.31   0.00   1.15    2.94    3.95    3.95    2.13    1.31    0.79    0.66    0.30    0.14    0.02      0      0      0       0     146 13.20