*SOIL TEMPERATURE OUTPUT FILE (DAILY)

*DSSAT Cropping System Model Ver. 4.8.2.000 -release  APR 04, 2025 15:50:50

*RUN   1        : farm_23                   MZCER048 UNLI2309    1
 MODEL          : MZCER048 - Maize
 EXPERIMENT     : UNLI2309 MZ PIO1366
 DATA PATH      :
 TREATMENT  1   : farm_23                   MZCER048
  
! TAV  =    10.0
! TAMP =    26.6
!               Temperature (oC) by soil depth (cm):
!               Surface     0-5    5-15   15-23   23-31   31-46   46-61   61-91  91-106 106-122 122-183
@YEAR DOY   DAS    TS0D    TS1D    TS2D    TS3D    TS4D    TS5D    TS6D    TS7D    TS8D    TS9D    TS10
 2023 110     1    10.7    10.5    10.2     9.7     9.4     8.9     8.4     7.7     7.1     6.8     6.5
 2023 111     2     9.2     9.0     8.7     8.3     8.0     7.6     7.1     6.6     6.1     5.8     5.6
 2023 112     3     7.2     7.1     6.8     6.5     6.2     5.9     5.5     5.0     4.7     4.5     4.4
 2023 113     4     5.3     5.3     5.0     4.8     4.6     4.3     4.0     3.7     3.4     3.3     3.2
 2023 114     5     4.5     4.4     4.2     4.0     3.8     3.6     3.3     3.0     2.9     2.8     2.7
 2023 115     6     4.5     4.5     4.3     4.0     3.9     3.6     3.4     3.1     2.9     2.8     2.8
 2023 116     7     6.0     5.9     5.7     5.4     5.2     4.9     4.5     4.1     3.9     3.7     3.6
 2023 117     8     8.2     8.1     7.8     7.4     7.1     6.8     6.3     5.8     5.4     5.1     4.9
 2023 118     9     8.9     8.8     8.5     8.1     7.8     7.4     6.9     6.3     5.9     5.6     5.3
 2023 119    10     9.5     9.4     9.1     8.7     8.4     7.9     7.4     6.8     6.3     6.0     5.7
 2023 120    11     9.6     9.5     9.2     8.8     8.5     8.0     7.5     6.9     6.4     6.1     5.7
 2023 121    12     8.8     8.6     8.3     8.0     7.7     7.3     6.8     6.2     5.8     5.5     5.2
 2023 122    13     8.0     7.9     7.6     7.2     7.0     6.6     6.2     5.6     5.2     5.0     4.7
 2023 123    14     9.5     9.4     9.1     8.7     8.4     8.0     7.5     6.8     6.3     6.0     5.7
 2023 124    15    11.1    11.0    10.6    10.2     9.8     9.3     8.8     8.0     7.4     7.1     6.6
 2023 125    16    13.3    13.1    12.7    12.2    11.8    11.2    10.6     9.7     9.0     8.5     8.0
 2023 126    17    15.0    14.8    14.4    13.8    13.4    12.8    12.0    11.1    10.2     9.7     9.1
 2023 127    18    16.6    16.4    15.9    15.4    14.9    14.2    13.4    12.3    11.4    10.8    10.1
 2023 128    19    17.2    17.0    16.5    15.9    15.4    14.7    13.8    12.7    11.7    11.2    10.4
 2023 129    20    17.0    16.8    16.3    15.7    15.2    14.5    13.7    12.6    11.6    11.1    10.3
 2023 130    21    16.7    16.5    16.0    15.4    14.9    14.3    13.5    12.4    11.4    10.9    10.1
 2023 131    22    17.0    16.8    16.3    15.7    15.3    14.6    13.8    12.7    11.7    11.2    10.4
 2023 132    23    16.6    16.4    15.9    15.4    14.9    14.2    13.5    12.4    11.5    10.9    10.2
 2023 133    24    16.6    16.5    16.0    15.5    15.0    14.3    13.6    12.5    11.6    11.0    10.3
 2023 134    25    15.7    15.5    15.1    14.6    14.1    13.5    12.8    11.8    10.9    10.4     9.7
 2023 135    26    14.3    14.2    13.8    13.3    12.9    12.3    11.6    10.7     9.9     9.5     8.8
 2023 136    27    13.7    13.6    13.2    12.7    12.4    11.8    11.2    10.3     9.5     9.1     8.5
 2023 137    28    14.0    13.9    13.5    13.0    12.6    12.1    11.4    10.5     9.8     9.3     8.7
 2023 138    29    13.9    13.7    13.3    12.9    12.5    12.0    11.3    10.4     9.7     9.2     8.6
 2023 139    30    13.6    13.5    13.1    12.7    12.3    11.8    11.1    10.3     9.5     9.1     8.5
 2023 140    31    14.1    14.0    13.6    13.1    12.8    12.2    11.6    10.7     9.9     9.4     8.8
 2023 141    32    14.8    14.7    14.2    13.8    13.4    12.8    12.1    11.2    10.4     9.9     9.2
 2023 142    33    15.5    15.3    14.9    14.4    14.0    13.4    12.7    11.7    10.9    10.3     9.7
 2023 143    34    15.9    15.8    15.4    14.9    14.4    13.8    13.1    12.1    11.2    10.7    10.0
 2023 144    35    17.5    17.3    16.8    16.3    15.8    15.2    14.4    13.3    12.3    11.7    11.0
 2023 145    36    18.7    18.5    18.0    17.5    17.0    16.3    15.4    14.3    13.2    12.6    11.7
 2023 146    37    18.8    18.6    18.1    17.5    17.0    16.3    15.5    14.3    13.3    12.7    11.8
 2023 147    38    18.7    18.6    18.1    17.5    17.0    16.3    15.5    14.3    13.3    12.7    11.8
 2023 148    39    18.7    18.5    18.0    17.5    17.0    16.3    15.5    14.3    13.3    12.7    11.8
 2023 149    40    19.0    18.9    18.4    17.8    17.3    16.6    15.8    14.6    13.6    12.9    12.1
 2023 150    41    19.3    19.2    18.7    18.1    17.6    16.9    16.0    14.9    13.8    13.2    12.3
 2023 151    42    19.9    19.7    19.2    18.6    18.1    17.4    16.5    15.3    14.3    13.6    12.7
 2023 152    43    20.1    19.9    19.4    18.8    18.3    17.6    16.7    15.5    14.4    13.7    12.8
 2023 153    44    20.3    20.1    19.6    19.0    18.5    17.7    16.9    15.6    14.5    13.9    12.9
 2023 154    45    19.7    19.5    19.0    18.4    17.9    17.2    16.4    15.2    14.2    13.5    12.6
 2023 155    46    19.4    19.3    18.8    18.2    17.7    17.1    16.2    15.1    14.1    13.4    12.5
 2023 156    47    19.5    19.4    18.9    18.3    17.8    17.2    16.3    15.2    14.1    13.5    12.6
 2023 157    48    19.6    19.5    19.0    18.4    17.9    17.3    16.4    15.3    14.2    13.6    12.7
 2023 158    49    19.9    19.8    19.3    18.7    18.2    17.5    16.7    15.5    14.5    13.8    12.9
 2023 159    50    20.6    20.5    20.0    19.4    18.9    18.2    17.3    16.1    15.0    14.3    13.4
 2023 160    51    21.5    21.3    20.8    20.2    19.6    18.9    18.0    16.8    15.6    14.9    13.9
 2023 161    52    21.4    21.2    20.7    20.1    19.6    18.9    18.0    16.8    15.6    14.9    13.9
 2023 162    53    20.8    20.7    20.2    19.6    19.1    18.4    17.5    16.3    15.3    14.6    13.6
 2023 163    54    19.5    19.4    18.9    18.4    17.9    17.3    16.5    15.4    14.4    13.7    12.9
 2023 164    55    18.3    18.2    17.8    17.3    16.9    16.3    15.5    14.5    13.6    13.0    12.2
 2023 165    56    17.2    17.1    16.7    16.3    15.9    15.3    14.6    13.7    12.8    12.3    11.5
 2023 166    57    17.3    17.2    16.8    16.4    16.0    15.4    14.8    13.8    12.9    12.4    11.6
 2023 167    58    17.7    17.6    17.2    16.7    16.3    15.8    15.1    14.1    13.2    12.7    11.9
 2023 168    59    18.6    18.4    18.0    17.5    17.1    16.6    15.8    14.8    13.9    13.3    12.5
 2023 169    60    19.6    19.5    19.0    18.5    18.1    17.5    16.7    15.7    14.7    14.0    13.2
 2023 170    61    20.8    20.7    20.2    19.7    19.2    18.6    17.8    16.6    15.6    14.9    14.0
 2023 171    62    21.4    21.3    20.8    20.3    19.8    19.1    18.3    17.1    16.0    15.3    14.4
 2023 172    63    22.2    22.1    21.6    21.0    20.5    19.8    19.0    17.8    16.6    15.9    14.9
 2023 173    64    22.8    22.7    22.2    21.6    21.1    20.4    19.5    18.2    17.1    16.4    15.3
 2023 174    65    23.1    22.9    22.4    21.8    21.3    20.6    19.8    18.5    17.4    16.6    15.6
 2023 175    66    22.6    22.5    22.0    21.4    21.0    20.3    19.4    18.2    17.1    16.4    15.4
 2023 176    67    21.7    21.5    21.1    20.6    20.1    19.5    18.7    17.5    16.5    15.8    14.8
 2023 177    68    20.9    20.8    20.4    19.9    19.5    18.9    18.1    17.0    16.0    15.3    14.4
 2023 178    69    21.3    21.2    20.8    20.3    19.8    19.2    18.4    17.3    16.3    15.6    14.7
 2023 179    70    22.1    22.0    21.6    21.0    20.6    20.0    19.1    18.0    16.9    16.2    15.3
 2023 180    71    22.6    22.4    22.0    21.4    21.0    20.3    19.5    18.4    17.3    16.6    15.6
 2023 181    72    22.6    22.5    22.0    21.5    21.1    20.4    19.6    18.4    17.4    16.7    15.7
 2023 182    73    22.7    22.5    22.1    21.6    21.1    20.5    19.7    18.5    17.5    16.8    15.8
 2023 183    74    22.4    22.3    21.8    21.3    20.9    20.3    19.5    18.4    17.3    16.6    15.7
 2023 184    75    22.2    22.0    21.6    21.1    20.7    20.1    19.3    18.2    17.2    16.5    15.6
 2023 185    76    21.8    21.7    21.3    20.8    20.4    19.8    19.1    18.0    17.0    16.4    15.4
 2023 186    77    21.0    20.9    20.5    20.1    19.7    19.1    18.4    17.4    16.5    15.8    15.0
 2023 187    78    20.1    20.0    19.7    19.3    18.9    18.4    17.7    16.8    15.9    15.3    14.5
 2023 188    79    19.9    19.8    19.4    19.0    18.7    18.2    17.6    16.7    15.8    15.2    14.4
 2023 189    80    17.9    17.8    17.5    17.2    16.9    16.5    16.0    15.2    14.4    13.9    13.2
 2023 190    81    17.4    17.3    17.0    16.7    16.5    16.1    15.6    14.8    14.1    13.7    13.0
 2023 191    82    19.3    19.2    18.9    18.5    18.2    17.8    17.2    16.3    15.5    15.0    14.2
 2023 192    83    21.0    20.9    20.6    20.2    19.8    19.3    18.7    17.7    16.8    16.2    15.4
 2023 193    84    21.8    21.7    21.3    20.9    20.5    20.0    19.3    18.4    17.4    16.8    15.9
 2023 194    85    23.3    23.2    22.8    22.4    22.0    21.4    20.6    19.6    18.6    17.9    16.9
 2023 195    86    23.8    23.6    23.3    22.8    22.4    21.8    21.1    20.0    18.9    18.2    17.3
 2023 196    87    23.1    23.0    22.6    22.2    21.8    21.2    20.5    19.5    18.5    17.8    16.9
 2023 197    88    23.1    23.0    22.6    22.2    21.8    21.3    20.6    19.5    18.6    17.9    17.0
 2023 198    89    22.6    22.5    22.2    21.7    21.4    20.9    20.2    19.2    18.3    17.6    16.7
 2023 199    90    22.5    22.4    22.1    21.7    21.3    20.8    20.1    19.2    18.2    17.6    16.7
 2023 200    91    22.9    22.8    22.5    22.1    21.7    21.2    20.5    19.5    18.6    18.0    17.1
 2023 201    92    22.6    22.5    22.2    21.8    21.5    21.0    20.3    19.4    18.4    17.8    16.9
 2023 202    93    21.8    21.7    21.4    21.0    20.7    20.3    19.7    18.8    17.9    17.3    16.5
 2023 203    94    21.9    21.8    21.5    21.2    20.9    20.4    19.8    18.9    18.1    17.5    16.6
 2023 204    95    22.3    22.2    21.9    21.5    21.2    20.7    20.1    19.2    18.4    17.8    16.9
 2023 205    96    22.9    22.8    22.5    22.1    21.7    21.3    20.6    19.7    18.8    18.2    17.4
 2023 206    97    24.5    24.4    24.1    23.7    23.3    22.8    22.1    21.1    20.1    19.4    18.5
 2023 207    98    26.1    26.0    25.6    25.1    24.7    24.1    23.4    22.3    21.2    20.5    19.5
 2023 208    99    27.2    27.1    26.7    26.2    25.8    25.2    24.4    23.2    22.1    21.3    20.3
 2023 209   100    27.7    27.6    27.2    26.7    26.2    25.6    24.8    23.6    22.5    21.7    20.6
 2023 210   101    27.3    27.2    26.8    26.3    25.9    25.3    24.5    23.4    22.2    21.5    20.4
 2023 211   102    27.1    26.9    26.6    26.1    25.7    25.1    24.3    23.2    22.1    21.4    20.3
 2023 212   103    26.6    26.5    26.1    25.7    25.3    24.7    24.0    22.9    21.9    21.1    20.1
 2023 213   104    25.9    25.8    25.5    25.0    24.7    24.1    23.5    22.4    21.4    20.7    19.8
 2023 214   105    25.8    25.7    25.3    24.9    24.6    24.0    23.4    22.4    21.4    20.7    19.7
 2023 215   106    25.5    25.4    25.1    24.7    24.4    23.9    23.2    22.2    21.2    20.6    19.6
 2023 216   107    24.8    24.7    24.4    24.0    23.7    23.3    22.6    21.7    20.8    20.2    19.3
 2023 217   108    24.3    24.2    23.9    23.6    23.3    22.9    22.3    21.4    20.5    19.9    19.1
 2023 218   109    23.3    23.2    23.0    22.7    22.4    22.0    21.5    20.7    19.9    19.3    18.5
 2023 219   110    21.5    21.5    21.3    21.0    20.8    20.5    20.1    19.4    18.7    18.2    17.5
 2023 220   111    20.8    20.7    20.5    20.3    20.1    19.8    19.5    18.8    18.2    17.8    17.1
 2023 221   112    20.3    20.2    20.1    19.9    19.7    19.5    19.1    18.5    17.9    17.5    16.9
 2023 222   113    20.5    20.4    20.3    20.1    19.9    19.7    19.3    18.7    18.1    17.7    17.1
 2023 223   114    21.0    21.0    20.8    20.6    20.4    20.1    19.8    19.2    18.5    18.1    17.4
 2023 224   115    22.1    22.0    21.8    21.6    21.4    21.1    20.7    20.0    19.3    18.9    18.2
 2023 225   116    21.6    21.6    21.4    21.2    21.0    20.7    20.3    19.7    19.1    18.6    17.9
 2023 226   117    21.0    20.9    20.8    20.6    20.4    20.2    19.8    19.2    18.6    18.2    17.6
 2023 227   118    20.0    20.0    19.9    19.7    19.6    19.4    19.1    18.6    18.0    17.7    17.1
 2023 228   119    20.6    20.6    20.5    20.3    20.2    19.9    19.6    19.1    18.5    18.1    17.5
 2023 229   120    20.5    20.4    20.3    20.2    20.0    19.8    19.5    19.0    18.4    18.1    17.5
 2023 230   121    22.2    22.2    22.0    21.8    21.7    21.4    21.0    20.4    19.8    19.3    18.7
 2023 231   122    24.2    24.1    23.9    23.6    23.4    23.1    22.6    21.9    21.2    20.7    19.9
 2023 232   123    25.7    25.6    25.4    25.1    24.8    24.4    23.9    23.1    22.3    21.7    20.9
 2023 233   124    26.5    26.4    26.2    25.9    25.6    25.2    24.6    23.8    22.9    22.3    21.5
 2023 234   125    28.4    28.3    28.0    27.7    27.3    26.9    26.2    25.3    24.3    23.7    22.7
 2023 235   126    29.1    29.0    28.7    28.3    28.0    27.5    26.8    25.8    24.9    24.2    23.2
 2023 236   127    29.3    29.2    28.9    28.6    28.2    27.7    27.1    26.1    25.1    24.4    23.4
 2023 237   128    29.0    28.9    28.6    28.3    27.9    27.5    26.8    25.9    24.9    24.3    23.3
 2023 238   129    26.8    26.8    26.5    26.2    26.0    25.6    25.1    24.2    23.4    22.8    22.0
 2023 239   130    24.6    24.6    24.4    24.2    24.0    23.7    23.3    22.6    21.9    21.4    20.7
 2023 240   131    23.0    22.9    22.8    22.6    22.5    22.2    21.9    21.4    20.8    20.4    19.7
 2023 241   132    21.4    21.4    21.3    21.2    21.1    20.9    20.7    20.2    19.7    19.4    18.8
 2023 242   133    20.7    20.6    20.6    20.5    20.4    20.3    20.1    19.7    19.2    18.9    18.4
 2023 243   134    22.0    22.0    21.9    21.8    21.7    21.5    21.2    20.8    20.2    19.9    19.3
 2023 244   135    23.7    23.7    23.5    23.4    23.2    23.0    22.6    22.1    21.5    21.1    20.4
 2023 245   136    25.0    24.9    24.8    24.6    24.4    24.1    23.7    23.1    22.4    22.0    21.2
 2023 246   137    26.1    26.0    25.8    25.6    25.4    25.1    24.7    24.0    23.3    22.7    22.0
 2023 247   138    26.9    26.8    26.6    26.4    26.2    25.8    25.4    24.6    23.9    23.3    22.5
 2023 248   139    24.5    24.5    24.3    24.2    24.0    23.8    23.4    22.8    22.2    21.8    21.1
 2023 249   140    22.0    22.0    21.9    21.9    21.8    21.6    21.4    21.0    20.5    20.2    19.7
 2023 250   141    20.7    20.7    20.7    20.7    20.6    20.5    20.3    20.0    19.7    19.4    18.9
 2023 251   142    19.1    19.1    19.2    19.2    19.2    19.1    19.0    18.8    18.6    18.3    18.0
 2023 252   143    18.6    18.6    18.6    18.7    18.7    18.7    18.6    18.5    18.2    18.0    17.7
 2023 253   144    18.9    18.9    18.9    19.0    19.0    19.0    18.9    18.7    18.5    18.3    17.9
 2023 254   145    18.7    18.7    18.7    18.8    18.8    18.8    18.7    18.6    18.4    18.2    17.9
 2023 255   146    17.7    17.8    17.8    17.9    17.9    18.0    18.0    17.9    17.8    17.6    17.4
 2023 256   147    17.4    17.4    17.5    17.6    17.7    17.7    17.7    17.7    17.6    17.4    17.2
 2023 257   148    16.5    16.5    16.6    16.7    16.8    16.9    17.0    17.0    16.9    16.9    16.7
 2023 258   149    16.9    16.9    17.0    17.1    17.2    17.3    17.3    17.4    17.3    17.2    17.0
 2023 259   150    17.5    17.6    17.6    17.7    17.8    17.9    17.9    17.9    17.8    17.6    17.4
 2023 260   151    17.6    17.6    17.7    17.8    17.8    17.9    17.9    17.9    17.8    17.7    17.5
 2023 261   152    18.3    18.3    18.4    18.5    18.5    18.6    18.6    18.5    18.4    18.3    18.0
 2023 262   153    18.7    18.7    18.7    18.8    18.9    18.9    18.9    18.8    18.7    18.5    18.3
 2023 263   154    18.9    19.0    19.0    19.1    19.1    19.2    19.2    19.1    18.9    18.8    18.5
 2023 264   155    18.8    18.9    18.9    19.0    19.0    19.1    19.1    19.0    18.9    18.7    18.5
 2023 265   156    18.7    18.7    18.8    18.9    18.9    19.0    19.0    18.9    18.8    18.7    18.4
 2023 266   157    17.9    17.9    18.0    18.1    18.2    18.2    18.3    18.3    18.2    18.1    17.9
 2023 267   158    17.1    17.2    17.3    17.4    17.5    17.6    17.7    17.8    17.7    17.7    17.5
 2023 268   159    16.4    16.5    16.6    16.7    16.9    17.0    17.1    17.3    17.3    17.2    17.1
