*Soil Organic Matter daily output file

*DSSAT Cropping System Model Ver. 4.8.2.000 -release  APR 04, 2025 15:50:50

*RUN   1        : farm_23                   MZCER048 UNLI2309    1
 MODEL          : MZCER048 - Maize
 EXPERIMENT     : UNLI2309 MZ PIO1366
 DATA PATH      :
 TREATMENT  1   : farm_23                   MZCER048
  
@YEAR DOY   DAS    OMAC    SCDD    SOCD    SC0D    SCTD   SOMCT    LCTD    ONAC    SNDD    SOND    SN0D    SNTD   SOMNT    LNTD
 2023 109     0       0   12180  128816    2000  126816  126816     0.0    0.00  1218.0 12681.6    0.00 12681.6 12681.6    0.00
 2023 110     1    5000   12180  130815    4000  126815  126815     0.0   55.00  1218.0 12736.5   55.00 12681.5 12681.5    0.00
 2023 111     2    5000   12180  130814    4000  126814  126814     0.0   55.00  1218.0 12736.4   55.00 12681.4 12681.4    0.00
 2023 112     3    5000   12179  130813    4000  126813  126813     0.0   55.00  1217.9 12736.3   55.00 12681.3 12681.3    0.00
 2023 113     4    5000   12179  130813    4000  126813  126813     0.0   55.00  1217.9 12736.3   55.00 12681.3 12681.3    0.00
 2023 114     5    5000   12179  130813    4000  126813  126813     0.0   55.00  1217.9 12736.3   55.00 12681.3 12681.3    0.00
 2023 115     6    5000   12179  130813    4000  126813  126813     0.0   55.00  1217.9 12736.3   55.00 12681.3 12681.3    0.00
 2023 116     7    5000   12179  130813    4000  126813  126813     0.0   55.00  1217.9 12736.3   55.00 12681.3 12681.3    0.00
 2023 117     8    5000   12179  130813    4000  126813  126813     0.0   55.00  1217.9 12736.3   55.00 12681.3 12681.3    0.00
 2023 118     9    5000   12179  130812    4000  126812  126812     0.0   55.00  1217.9 12736.2   55.00 12681.2 12681.2    0.00
 2023 119    10    5000   12179  130811    4000  126811  126811     0.0   55.00  1217.9 12736.1   55.00 12681.1 12681.1    0.00
 2023 120    11    5000   12179  130811    4000  126811  126811     0.0   55.00  1217.9 12736.1   55.00 12681.1 12681.1    0.00
 2023 121    12    5000   12179  130810    4000  126810  126810     0.0   55.00  1217.9 12736.0   55.00 12681.0 12681.0    0.00
 2023 122    13    5000   12179  130809    4000  126809  126809     0.0   55.00  1217.9 12735.9   55.00 12680.9 12680.9    0.00
 2023 123    14    5000   12179  130809    4000  126809  126809     0.0   55.00  1217.9 12735.9   55.00 12680.9 12680.9    0.00
 2023 124    15    5000   12179  130808    4000  126808  126808     0.0   55.00  1217.9 12735.8   55.00 12680.8 12680.8    0.00
 2023 125    16    5000   12178  130807    4000  126807  126807     0.0   55.00  1217.8 12735.7   55.00 12680.7 12680.7    0.00
 2023 126    17    5000   12178  130805    4000  126805  126805     0.0   55.00  1217.8 12735.5   55.00 12680.5 12680.5    0.00
 2023 127    18    5000   12178  130802    4000  126802  126802     0.0   55.00  1217.8 12735.2   55.00 12680.2 12680.2    0.00
 2023 128    19    5000   12177  130799    4000  126799  126799     0.0   55.00  1217.7 12734.9   55.00 12679.9 12679.9    0.00
 2023 129    20    5000   12177  130796    4000  126796  126796     0.0   55.00  1217.7 12734.6   55.00 12679.6 12679.6    0.00
 2023 130    21    5000   12177  130793    4000  126793  126793     0.0   55.00  1217.7 12734.3   55.00 12679.3 12679.3    0.00
 2023 131    22    5000   12176  130791    4000  126791  126791     0.0   55.00  1217.6 12734.1   55.00 12679.1 12679.1    0.00
 2023 132    23    5000   12176  130788    4000  126788  126788     0.0   55.00  1217.6 12733.8   55.00 12678.8 12678.8    0.00
 2023 133    24    5000   12176  130785    4000  126785  126785     0.0   55.00  1217.6 12733.5   55.00 12678.5 12678.5    0.00
 2023 134    25    5000   12175  130782    4000  126782  126782     0.0   55.00  1217.5 12733.2   55.00 12678.2 12678.2    0.00
 2023 135    26    5000   12175  130779    4000  126779  126779     0.0   55.00  1217.5 12732.9   55.00 12677.9 12677.9    0.00
 2023 136    27    5000   12175  130777    4000  126777  126777     0.0   55.00  1217.5 12732.7   55.00 12677.7 12677.7    0.00
 2023 137    28    5000   12174  130775    4000  126775  126775     0.0   55.00  1217.4 12732.5   55.00 12677.5 12677.5    0.00
 2023 138    29    5000   12174  130773    4000  126773  126773     0.0   55.00  1217.4 12732.3   55.00 12677.3 12677.3    0.00
 2023 139    30    5000   12174  130770    4000  126770  126770     0.0   55.00  1217.4 12732.0   55.00 12677.0 12677.0    0.00
 2023 140    31    5000   12173  130768    4000  126768  126768     0.0   55.00  1217.3 12731.8   55.00 12676.8 12676.8    0.00
 2023 141    32    5000   12173  130766    4000  126766  126766     0.0   55.00  1217.3 12731.6   55.00 12676.6 12676.6    0.00
 2023 142    33    5000   12173  130764    4000  126764  126764     0.0   55.00  1217.3 12731.4   55.00 12676.4 12676.4    0.00
 2023 143    34    5000   12172  130761    4000  126761  126761     0.0   55.00  1217.2 12731.1   55.00 12676.1 12676.1    0.00
 2023 144    35    5000   12172  130758    4000  126758  126758     0.0   55.00  1217.2 12730.8   55.00 12675.8 12675.8    0.00
 2023 145    36    5000   12172  130755    4000  126755  126755     0.1   55.00  1217.2 12730.5   55.00 12675.5 12675.5    0.00
 2023 146    37    5000   12171  130752    4000  126752  126752     0.1   55.00  1217.1 12730.2   55.00 12675.2 12675.2    0.00
 2023 147    38    5000   12171  130748    4000  126748  126748     0.2   55.00  1217.1 12729.8   55.00 12674.8 12674.8    0.01
 2023 148    39    5000   12170  130745    4000  126745  126745     0.3   55.00  1217.0 12729.5   55.00 12674.5 12674.5    0.01
 2023 149    40    5000   12170  130741    4000  126741  126741     0.4   55.00  1217.0 12729.1   55.00 12674.1 12674.1    0.01
 2023 150    41    5000   12169  130738    4000  126738  126737     0.5   55.00  1216.9 12728.8   55.00 12673.8 12673.7    0.02
 2023 151    42    5000   12169  130734    4000  126734  126734     0.6   55.00  1216.9 12728.4   55.00 12673.4 12673.4    0.02
 2023 152    43    5000   12169  130731    4000  126731  126730     0.8   55.00  1216.9 12728.0   55.00 12673.0 12673.0    0.02
 2023 153    44    5000   12168  130727    4000  126727  126726     1.0   55.00  1216.8 12727.6   55.00 12672.6 12672.6    0.03
 2023 154    45    5000   12168  130723    4000  126723  126722     1.2   55.00  1216.8 12727.2   55.00 12672.2 12672.2    0.03
 2023 155    46    5000   12167  130719    4000  126719  126718     1.5   55.00  1216.7 12726.8   55.00 12671.8 12671.8    0.04
 2023 156    47    5000   12167  130716    4000  126716  126714     1.7   55.00  1216.7 12726.5   55.00 12671.5 12671.4    0.05
 2023 157    48    5000   12166  130712    4000  126712  126710     2.0   55.00  1216.6 12726.1   55.00 12671.1 12671.0    0.05
 2023 158    49    5000   12166  130709    4000  126709  126706     2.4   55.00  1216.6 12725.7   55.00 12670.7 12670.6    0.06
 2023 159    50    5000   12165  130705    4000  126705  126702     2.9   55.00  1216.5 12725.3   55.00 12670.3 12670.2    0.07
 2023 160    51    5000   12165  130702    4000  126702  126698     3.4   55.00  1216.5 12724.9   55.00 12669.9 12669.8    0.08
 2023 161    52    5000   12164  130698    4000  126698  126694     3.9   55.00  1216.4 12724.5   55.00 12669.5 12669.4    0.09
 2023 162    53    5000   12164  130694    4000  126694  126689     4.5   55.00  1216.4 12724.0   55.00 12669.0 12668.9    0.09
 2023 163    54    5000   12163  130690    4000  126690  126685     5.2   55.00  1216.3 12723.6   55.00 12668.6 12668.5    0.11
 2023 164    55    5000   12163  130687    4000  126687  126681     6.0   55.00  1216.3 12723.2   55.00 12668.2 12668.1    0.12
 2023 165    56    5000   12162  130684    4000  126684  126678     6.8   55.00  1216.2 12722.9   55.00 12667.9 12667.8    0.13
 2023 166    57    5000   12162  130682    4000  126682  126674     7.7   55.00  1216.2 12722.6   55.00 12667.6 12667.4    0.14
 2023 167    58    5000   12161  130680    4000  126680  126671     8.7   55.00  1216.1 12722.3   55.00 12667.3 12667.1    0.16
 2023 168    59    5000   12161  130677    4000  126677  126668     9.7   55.00  1216.1 12722.0   55.00 12667.0 12666.8    0.18
 2023 169    60    5000   12161  130675    4000  126675  126664    10.8   55.00  1216.1 12721.6   55.00 12666.6 12666.4    0.20
 2023 170    61    5000   12160  130672    4000  126672  126660    11.8   55.00  1216.0 12721.2   55.00 12666.2 12666.0    0.22
 2023 171    62    5000   12160  130669    4000  126669  126656    12.9   55.00  1216.0 12720.8   55.00 12665.8 12665.6    0.24
 2023 172    63    5000   12159  130665    4000  126665  126651    14.1   55.00  1215.9 12720.4   55.00 12665.4 12665.1    0.27
 2023 173    64    5000   12159  130662    4000  126662  126647    15.2   55.00  1215.8 12719.9   55.00 12664.9 12664.7    0.29
 2023 174    65    5000   12158  130658    4000  126658  126642    16.3   55.00  1215.8 12719.5   55.00 12664.5 12664.2    0.31
 2023 175    66    5000   12157  130654    4000  126654  126637    17.2   55.00  1215.7 12719.0   55.00 12664.0 12663.7    0.34
 2023 176    67    5000   12157  130650    4000  126650  126632    18.2   55.00  1215.7 12718.5   55.00 12663.5 12663.2    0.37
 2023 177    68    5000   12156  130647    4000  126647  126628    19.2   55.00  1215.6 12718.1   55.00 12663.1 12662.7    0.40
 2023 178    69    5000   12156  130644    4000  126644  126623    20.4   55.00  1215.6 12717.7   55.00 12662.7 12662.3    0.42
 2023 179    70    5000   12155  130641    4000  126641  126619    21.6   55.00  1215.5 12717.3   55.00 12662.3 12661.8    0.45
 2023 180    71    5000   12155  130637    4000  126637  126614    22.7   55.00  1215.5 12716.8   55.00 12661.8 12661.3    0.48
 2023 181    72    5000   12154  130633    4000  126633  126610    23.8   55.00  1215.4 12716.4   55.00 12661.4 12660.9    0.51
 2023 182    73    5000   12154  130630    4000  126630  126605    25.0   55.00  1215.3 12715.9   55.00 12660.9 12660.4    0.54
 2023 183    74    5000   12153  130626    4000  126626  126600    26.1   55.00  1215.3 12715.4   55.00 12660.4 12659.9    0.57
 2023 184    75    5000   12153  130622    4000  126622  126595    27.3   55.00  1215.2 12715.0   55.00 12660.0 12659.4    0.60
 2023 185    76    5000   12152  130619    4000  126619  126590    28.4   55.00  1215.2 12714.5   55.00 12659.5 12658.9    0.63
 2023 186    77    5000   12152  130615    4000  126615  126586    29.6   55.00  1215.1 12714.1   55.00 12659.1 12658.4    0.66
 2023 187    78    5000   12151  130612    4000  126612  126582    30.8   55.00  1215.1 12713.7   55.00 12658.7 12658.0    0.69
 2023 188    79    5000   12151  130609    4000  126609  126577    32.0   55.00  1215.0 12713.3   55.00 12658.3 12657.6    0.73
 2023 189    80    5000   12150  130606    4000  126606  126573    33.2   55.00  1215.0 12712.9   55.00 12657.9 12657.1    0.76
 2023 190    81    5000   12150  130604    4000  126604  126570    34.5   55.00  1214.9 12712.6   55.00 12657.6 12656.8    0.79
 2023 191    82    5000   12149  130602    4000  126602  126566    35.8   55.00  1214.9 12712.2   55.00 12657.2 12656.4    0.82
 2023 192    83    5000   12149  130599    4000  126599  126562    37.0   55.00  1214.9 12711.8   55.00 12656.8 12656.0    0.85
 2023 193    84    5000   12148  130596    4000  126596  126558    38.0   55.00  1214.8 12711.4   55.00 12656.4 12655.5    0.88
 2023 194    85    5000   12148  130592    4000  126592  126553    38.9   55.00  1214.7 12711.0   55.00 12656.0 12655.1    0.91
 2023 195    86    5000   12147  130588    4000  126588  126548    39.8   55.00  1214.7 12710.5   55.00 12655.5 12654.5    0.95
 2023 196    87    5000   12147  130584    4000  126584  126543    40.7   55.00  1214.6 12710.0   55.00 12655.0 12654.0    0.98
 2023 197    88    5000   12146  130580    4000  126580  126538    41.6   55.00  1214.6 12709.5   55.00 12654.5 12653.5    1.01
 2023 198    89    5000   12146  130575    4000  126575  126533    42.4   55.00  1214.5 12709.0   55.00 12654.0 12653.0    1.04
 2023 199    90    5000   12145  130571    4000  126571  126528    43.2   55.00  1214.5 12708.5   55.00 12653.5 12652.4    1.07
 2023 200    91    5000   12145  130567    4000  126567  126523    44.0   55.00  1214.4 12708.0   55.00 12653.0 12651.9    1.10
 2023 201    92    5000   12144  130563    4000  126563  126518    44.8   55.00  1214.3 12707.6   55.00 12652.6 12651.4    1.13
 2023 202    93    5000   12143  130559    4000  126559  126513    45.6   55.00  1214.3 12707.1   55.00 12652.1 12650.9    1.16
 2023 203    94    5000   12143  130555    4000  126555  126509    46.4   55.00  1214.2 12706.6   55.00 12651.6 12650.4    1.19
 2023 204    95    5000   12142  130551    4000  126551  126504    47.2   55.00  1214.2 12706.1   55.00 12651.1 12649.9    1.22
 2023 205    96    5000   12142  130547    4000  126547  126499    48.0   55.00  1214.1 12705.7   55.00 12650.7 12649.4    1.25
 2023 206    97    5000   12141  130543    4000  126543  126494    48.7   55.00  1214.1 12705.2   55.00 12650.2 12648.9    1.28
 2023 207    98    5000   12141  130538    4000  126538  126489    49.2   55.00  1214.0 12704.6   55.00 12649.6 12648.3    1.30
 2023 208    99    5000   12140  130532    4000  126532  126483    49.7   55.00  1213.9 12704.0   55.00 12649.0 12647.7    1.33
 2023 209   100    5000   12139  130526    4000  126526  126476    50.0   55.00  1213.9 12703.4   55.00 12648.4 12647.1    1.36
 2023 210   101    5000   12139  130520    4000  126520  126470    50.4   55.00  1213.8 12702.8   55.00 12647.8 12646.4    1.38
 2023 211   102    5000   12138  130514    4000  126514  126464    50.8   55.00  1213.7 12702.1   55.00 12647.1 12645.7    1.40
 2023 212   103    5000   12137  130509    4000  126509  126457    51.2   55.00  1213.6 12701.5   55.00 12646.5 12645.1    1.43
 2023 213   104    5000   12137  130503    4000  126503  126451    51.6   55.00  1213.6 12700.9   55.00 12645.9 12644.5    1.45
 2023 214   105    5000   12136  130498    4000  126498  126445    52.1   55.00  1213.5 12700.3   55.00 12645.3 12643.8    1.48
 2023 215   106    5000   12135  130492    4000  126492  126440    52.6   55.00  1213.4 12699.7   55.00 12644.7 12643.2    1.50
 2023 216   107    5000   12135  130487    4000  126487  126434    53.1   55.00  1213.4 12699.1   55.00 12644.1 12642.6    1.52
 2023 217   108    5000   12134  130482    4000  126482  126428    53.7   55.00  1213.3 12698.6   55.00 12643.6 12642.0    1.55
 2023 218   109    5000   12134  130477    4000  126477  126422    54.1   55.00  1213.2 12698.0   55.00 12643.0 12641.4    1.57
 2023 219   110    5000   12133  130472    4000  126472  126417    54.6   55.00  1213.2 12697.5   55.00 12642.5 12640.9    1.59
 2023 220   111    5000   12133  130468    4000  126468  126412    55.3   55.00  1213.1 12697.0   55.00 12642.0 12640.4    1.62
 2023 221   112    5000   12132  130464    4000  126464  126408    56.1   55.00  1213.1 12696.5   55.00 12641.5 12639.9    1.64
 2023 222   113    5000   12132  130460    4000  126460  126403    56.8   55.00  1213.0 12696.1   55.00 12641.1 12639.4    1.66
 2023 223   114    5000   12131  130456    4000  126456  126399    57.4   55.00  1213.0 12695.6   55.00 12640.6 12639.0    1.69
 2023 224   115    5000   12131  130452    4000  126452  126394    58.0   55.00  1212.9 12695.2   55.00 12640.2 12638.5    1.71
 2023 225   116    5000   12130  130447    4000  126447  126389    58.4   55.00  1212.9 12694.7   55.00 12639.7 12637.9    1.73
 2023 226   117    5000   12130  130443    4000  126443  126384    58.9   55.00  1212.8 12694.2   55.00 12639.2 12637.4    1.76
 2023 227   118    5000   12129  130439    4000  126439  126379    59.4   55.00  1212.8 12693.7   55.00 12638.7 12636.9    1.78
 2023 228   119    5000   12129  130435    4000  126435  126375    60.0   55.00  1212.7 12693.3   55.00 12638.3 12636.5    1.80
 2023 229   120    5000   12128  130431    4000  126431  126370    60.6   55.00  1212.7 12692.8   55.00 12637.8 12636.0    1.83
 2023 230   121    5000   12128  130426    4000  126426  126365    61.1   55.00  1212.6 12692.3   55.00 12637.3 12635.5    1.85
 2023 231   122    5000   12127  130422    4000  126422  126360    61.5   55.00  1212.6 12691.8   55.00 12636.8 12635.0    1.87
 2023 232   123    5000   12127  130416    4000  126416  126355    61.7   55.00  1212.5 12691.3   55.00 12636.3 12634.4    1.89
 2023 233   124    5000   12126  130410    4000  126410  126349    61.8   55.00  1212.4 12690.6   55.00 12635.6 12633.7    1.91
 2023 234   125    5000   12125  130404    4000  126404  126342    61.9   55.00  1212.4 12690.0   55.00 12635.0 12633.1    1.92
 2023 235   126    5000   12125  130397    4000  126397  126335    61.8   55.00  1212.3 12689.3   55.00 12634.3 12632.4    1.94
 2023 236   127    5000   12124  130390    4000  126390  126328    61.6   55.00  1212.2 12688.6   55.00 12633.6 12631.6    1.95
 2023 237   128    5000   12123  130383    4000  126383  126321    61.5   55.00  1212.1 12687.9   55.00 12632.9 12630.9    1.96
 2023 238   129    5000   12122  130376    4000  126376  126314    61.5   55.00  1212.0 12687.1   55.00 12632.1 12630.2    1.98
 2023 239   130    5000   12122  130369    4000  126369  126308    61.6   55.00  1212.0 12686.5   55.00 12631.5 12629.5    1.99
 2023 240   131    5000   12121  130364    4000  126364  126302    61.9   55.00  1211.9 12685.9   55.00 12630.9 12628.9    2.01
 2023 241   132    5000   12120  130359    4000  126359  126297    62.3   55.00  1211.9 12685.3   55.00 12630.3 12628.3    2.03
 2023 242   133    5000   12120  130354    4000  126354  126292    62.9   55.00  1211.8 12684.8   55.00 12629.8 12627.8    2.05
 2023 243   134    5000   12119  130350    4000  126350  126287    63.5   55.00  1211.8 12684.4   55.00 12629.4 12627.3    2.07
 2023 244   135    5000   12119  130345    4000  126345  126281    63.9   55.00  1211.7 12683.8   55.00 12628.8 12626.8    2.09
 2023 245   136    5000   12118  130340    4000  126340  126276    64.3   55.00  1211.6 12683.3   55.00 12628.3 12626.2    2.11
 2023 246   137    5000   12118  130334    4000  126334  126270    64.5   55.00  1211.6 12682.7   55.00 12627.7 12625.5    2.13
 2023 247   138    5000   12117  130328    4000  126328  126263    64.6   55.00  1211.5 12682.0   55.00 12627.0 12624.9    2.15
 2023 248   139    5000   12116  130322    4000  126322  126257    64.7   55.00  1211.4 12681.4   55.00 12626.4 12624.2    2.16
 2023 249   140    5000   12116  130316    4000  126316  126251    64.9   55.00  1211.4 12680.8   55.00 12625.8 12623.6    2.18
 2023 250   141    5000   12115  130311    4000  126311  126246    65.3   55.00  1211.3 12680.3   55.00 12625.3 12623.1    2.20
 2023 251   142    5000   12115  130307    4000  126307  126241    65.9   55.00  1211.3 12679.8   55.00 12624.8 12622.5    2.22
 2023 252   143    5000   12114  130303    4000  126303  126236    66.5   55.00  1211.2 12679.3   55.00 12624.3 12622.1    2.25
 2023 253   144    5000   12114  130299    4000  126299  126232    67.2   55.00  1211.2 12678.9   55.00 12623.9 12621.6    2.27
 2023 254   145    5000   12114  130295    4000  126295  126228    67.7   55.00  1211.1 12678.5   55.00 12623.5 12621.2    2.29
 2023 255   146    5000   12113  130291    4000  126291  126223    68.0   55.00  1211.1 12678.0   55.00 12623.0 12620.7    2.32
 2023 256   147    5000   12113  130287    4000  126287  126219    68.5   55.00  1211.1 12677.6   55.00 12622.6 12620.3    2.34
 2023 257   148    5000   12112  130284    4000  126284  126215    68.9   55.00  1211.0 12677.2   55.00 12622.2 12619.8    2.36
 2023 258   149    5000   12112  130281    4000  126281  126211    69.4   55.00  1211.0 12676.8   55.00 12621.8 12619.4    2.38
 2023 259   150    5000   12112  130277    4000  126277  126207    69.9   55.00  1210.9 12676.4   55.00 12621.4 12619.0    2.40
 2023 260   151    5000   12111  130273    4000  126273  126203    70.3   55.00  1210.9 12676.0   55.00 12621.0 12618.6    2.42
 2023 261   152    5000   12111  130269    4000  126269  126199    70.7   55.00  1210.9 12675.6   55.00 12620.6 12618.2    2.44
 2023 262   153    5000   12110  130265    4000  126265  126194    70.9   55.00  1210.8 12675.2   55.00 12620.2 12617.7    2.46
 2023 263   154    5000   12110  130261    4000  126261  126190    71.1   55.00  1210.8 12674.7   55.00 12619.7 12617.2    2.48
 2023 264   155    5000   12110  130255    4000  126255  126185    69.5   55.00  1210.7 12674.2   55.00 12619.2 12616.8    2.45
 2023 265   156    5000   12109  130249    4000  126249  126181    67.9   55.00  1210.7 12673.7   55.00 12618.7 12616.3    2.41
 2023 266   157    5000   12109  130243    4000  126243  126176    66.4   55.00  1210.6 12673.2   55.00 12618.2 12615.8    2.38
 2023 267   158    5000   12108  130237    4000  126237  126172    65.1   55.00  1210.6 12672.7   55.00 12617.7 12615.4    2.35
 2023 268   159    5000   12108  130232    4000  126232  126168    63.8   55.00  1210.5 12672.3   55.00 12617.3 12614.9    2.32
