*SOIL-PLANT-ATMOSPHERE MODULE OUTPUT FILE

*DSSAT Cropping System Model Ver. 4.8.2.000 -release  APR 04, 2025 15:50:50

*RUN   1        : farm_23                   MZCER048 UNLI2309    1
 MODEL          : MZCER048 - Maize
 EXPERIMENT     : UNLI2309 MZ PIO1366
 DATA PATH      :
 TREATMENT  1   : farm_23                   MZCER048
  
@YEAR DOY   DAS   SRAA  TMAXA  TMINA    REFA    EOAA    EOPA    EOSA    ETAA    EPAA    ESAA    EFAA    EMAA    EOAC    ETAC    EPAC    ESAC    EFAC    EMAC    KCAA    KBSA    KEAA
 2023 110     1  18.50  12.10   1.70   1.616   1.945   0.000   1.945   0.721   0.000   0.143   0.000   0.578    1.95    0.72    0.00    0.14    0.00    0.58   0.446   0.000   0.446 
 2023 111     2  24.00   9.80  -1.60   1.453   1.751   0.000   1.751   0.240   0.000   0.000   0.000   0.240    3.70    0.96    0.00    0.14    0.00    0.82   0.165   0.000   0.165 
 2023 112     3  24.60   8.50  -5.20   1.377   1.660   0.000   1.660   0.753   0.000   0.000   0.000   0.753    5.36    1.71    0.00    0.14    0.00    1.57   0.547   0.000   0.547 
 2023 113     4  23.60  14.20  -9.30   1.316   1.586   0.000   1.586   0.179   0.000   0.034   0.000   0.145    6.94    1.89    0.00    0.18    0.00    1.72   0.136   0.000   0.136 
 2023 114     5  19.50  19.10  -4.10   1.384   1.668   0.000   1.668   0.188   0.000   0.160   0.000   0.028    8.61    2.08    0.00    0.34    0.00    1.74   0.136   0.000   0.136 
 2023 115     6  10.90  12.50   1.60   1.085   1.302   0.000   1.302   0.147   0.000   0.141   0.000   0.005    9.91    2.23    0.00    0.48    0.00    1.75   0.135   0.000   0.135 
 2023 116     7  16.80  17.10   5.40   1.474   1.773   0.000   1.773   0.200   0.000   0.199   0.000   0.001   11.69    2.43    0.00    0.68    0.00    1.75   0.136   0.000   0.136 
 2023 117     8  14.90  21.00   4.10   1.455   1.753   0.000   1.753   0.198   0.000   0.197   0.000   0.000   13.44    2.63    0.00    0.88    0.00    1.75   0.136   0.000   0.136 
 2023 118     9  12.80  11.90   0.10   1.165   1.402   0.000   1.402   0.158   0.000   0.158   0.000   0.000   14.84    2.78    0.00    1.03    0.00    1.75   0.136   0.000   0.136 
 2023 119    10  26.00  20.40   0.80   1.831   2.207   0.000   2.207   0.249   0.000   0.249   0.000   0.000   17.05    3.03    0.00    1.28    0.00    1.75   0.136   0.000   0.136 
 2023 120    11  26.80  15.10  -0.10   1.709   2.060   0.000   2.060   0.232   0.000   0.232   0.000   0.000   19.11    3.26    0.00    1.51    0.00    1.75   0.136   0.000   0.136 
 2023 121    12  27.20  18.90  -5.30   1.659   2.000   0.000   2.000   0.225   0.000   0.225   0.000   0.000   21.11    3.49    0.00    1.74    0.00    1.75   0.136   0.000   0.136 
 2023 122    13  27.40  19.70  -2.60   1.746   2.105   0.000   2.105   0.237   0.000   0.237   0.000   0.000   23.21    3.73    0.00    1.98    0.00    1.75   0.136   0.000   0.136 
 2023 123    14  24.90  25.60   1.90   1.811   2.183   0.000   2.183   0.246   0.000   0.246   0.000   0.000   25.40    3.97    0.00    2.22    0.00    1.75   0.136   0.000   0.136 
 2023 124    15  24.30  27.60   9.50   2.220   2.677   0.000   2.677   0.302   0.000   0.302   0.000   0.000   28.07    4.27    0.00    2.52    0.00    1.75   0.136   0.000   0.136 
 2023 125    16  26.00  25.10  11.20   2.420   2.910   0.000   2.910   2.582   0.000   0.000   0.000   2.582   30.98    6.86    0.00    2.52    0.00    4.33   1.067   0.000   1.067 
 2023 126    17  24.50  22.30   8.50   2.164   2.603   0.000   2.603   0.741   0.000   0.000   0.000   0.741   33.59    7.60    0.00    2.52    0.00    5.07   0.342   0.000   0.342 
 2023 127    18  19.00  23.90   9.50   1.917   2.306   0.000   2.306   0.373   0.000   0.000   0.000   0.373   35.89    7.97    0.00    2.52    0.00    5.45   0.194   0.000   0.194 
 2023 128    19  27.10  24.70   8.10   2.309   2.783   0.000   2.783   0.314   0.000   0.012   0.000   0.302   38.68    8.28    0.00    2.54    0.00    5.75   0.136   0.000   0.136 
 2023 129    20  22.40  22.10  13.40   2.291   2.745   0.000   2.745   0.309   0.000   0.251   0.000   0.058   41.42    8.59    0.00    2.79    0.00    5.81   0.135   0.000   0.135 
 2023 130    21  14.90  21.30  12.00   1.743   2.086   0.000   2.086   1.851   0.000   0.000   0.000   1.851   43.51   10.44    0.00    2.79    0.00    7.66   1.062   0.000   1.062 
 2023 131    22  16.90  22.70  11.20   1.873   2.247   0.000   2.247   1.379   0.000   0.000   0.000   1.379   45.75   11.82    0.00    2.79    0.00    9.04   0.736   0.000   0.736 
 2023 132    23  12.40  17.70  11.40   2.154   2.567   0.003   2.564   2.278   0.003   0.000   0.000   2.275   48.32   14.10    0.00    2.79    0.00   11.31   1.057   0.001   1.056 
 2023 133    24  18.50  20.70  13.10   3.047   3.640   0.007   3.634   2.110   0.007   0.000   0.000   2.103   51.96   16.21    0.01    2.79    0.00   13.41   0.693   0.002   0.690 
 2023 134    25   4.50  14.90  11.00   0.800   0.947   0.003   0.945   0.841   0.003   0.000   0.000   0.838   52.91   17.05    0.01    2.79    0.00   14.25   1.051   0.003   1.048 
 2023 135    26   5.80  12.80   6.80   0.969   1.151   0.004   1.147   0.729   0.004   0.000   0.000   0.725   54.06   17.78    0.02    2.79    0.00   14.98   0.752   0.004   0.748 
 2023 136    27  25.30  22.30   5.70   3.503   4.224   0.015   4.210   0.489   0.015   0.105   0.000   0.370   58.28   18.27    0.03    2.89    0.00   15.35   0.140   0.004   0.135 
 2023 137    28  23.60  25.40   6.00   3.423   4.135   0.018   4.117   0.482   0.018   0.393   0.000   0.071   62.42   18.75    0.05    3.28    0.00   15.42   0.141   0.005   0.136 
 2023 138    29  16.20  20.90  11.50   2.689   3.220   0.018   3.202   2.848   0.018   0.000   0.000   2.830   65.64   21.60    0.07    3.28    0.00   18.25   1.059   0.007   1.053 
 2023 139    30  26.80  17.90   5.20   3.525   4.247   0.028   4.219   0.572   0.028   0.000   0.000   0.544   69.88   22.17    0.09    3.28    0.00   18.79   0.162   0.008   0.154 
 2023 140    31  26.90  22.20   2.10   3.525   4.263   0.031   4.232   0.508   0.031   0.372   0.000   0.105   74.15   22.68    0.13    3.66    0.00   18.90   0.144   0.009   0.135 
 2023 141    32  23.40  24.70   9.80   3.578   4.316   0.030   4.286   0.513   0.030   0.463   0.000   0.020   78.46   23.19    0.16    4.12    0.00   18.92   0.143   0.008   0.135 
 2023 142    33  22.60  24.50  13.80   3.708   4.449   0.038   4.411   0.535   0.038   0.493   0.000   0.004   82.91   23.73    0.19    4.61    0.00   18.92   0.144   0.010   0.134 
 2023 143    34  22.10  24.10  13.00   3.623   4.343   0.061   4.282   0.544   0.061   0.482   0.000   0.001   87.26   24.27    0.25    5.09    0.00   18.92   0.150   0.017   0.133 
 2023 144    35  23.30  24.20  14.30   3.839   4.597   0.092   4.505   0.600   0.092   0.507   0.000   0.000   91.85   24.87    0.35    5.60    0.00   18.92   0.156   0.024   0.132 
 2023 145    36  21.30  22.30  14.70   3.569   4.247   0.116   4.131   0.581   0.116   0.465   0.000   0.000   96.10   25.45    0.46    6.07    0.00   18.92   0.163   0.032   0.130 
 2023 146    37   6.40  20.80  14.60   1.294   1.526   0.053   1.473   1.360   0.053   0.000   0.000   1.307   97.62   26.81    0.52    6.07    0.00   20.23   1.051   0.041   1.010 
 2023 147    38  24.10  23.50  14.30   3.987   4.753   0.193   4.560   1.964   0.193   0.000   0.000   1.771  102.38   28.78    0.71    6.07    0.00   22.00   0.492   0.048   0.444 
 2023 148    39  20.20  22.50  14.20   3.448   4.083   0.201   3.882   1.693   0.201   0.000   0.000   1.492  106.46   30.47    0.91    6.07    0.00   23.49   0.491   0.058   0.433 
 2023 149    40  23.70  26.70  15.20   4.060   4.862   0.277   4.585   3.167   0.277   0.000   0.000   2.890  111.32   33.64    1.19    6.07    0.00   26.38   0.780   0.068   0.712 
 2023 150    41  27.00  27.40  12.20   4.349   5.249   0.357   4.893   2.054   0.357   0.000   0.000   1.698  116.57   35.69    1.54    6.07    0.00   28.08   0.472   0.082   0.390 
 2023 151    42  27.70  26.10  14.80   4.480   5.396   0.429   4.966   0.989   0.429   0.233   0.000   0.326  121.97   36.68    1.97    6.30    0.00   28.41   0.221   0.096   0.125 
 2023 152    43  16.10  23.70  15.60   2.935   3.487   0.324   3.163   0.681   0.324   0.294   0.000   0.063  125.46   37.36    2.30    6.59    0.00   28.47   0.232   0.110   0.121 
 2023 153    44  15.80  23.30  15.40   2.896   3.427   0.358   3.069   0.703   0.358   0.334   0.000   0.012  128.88   38.06    2.65    6.93    0.00   28.48   0.243   0.123   0.119 
 2023 154    45  14.70  22.60  13.50   2.657   3.151   0.359   2.792   0.673   0.359   0.312   0.000   0.002  132.03   38.74    3.01    7.24    0.00   28.48   0.253   0.135   0.118 
 2023 155    46  29.00  26.40  10.90   4.457   5.407   0.645   4.762   3.472   0.645   0.000   0.000   2.827  137.44   42.21    3.66    7.24    0.00   31.31   0.779   0.145   0.634 
 2023 156    47  27.10  26.90  14.90   4.461   5.373   0.706   4.667   1.249   0.706   0.000   0.000   0.544  142.81   43.46    4.36    7.24    0.00   31.85   0.280   0.158   0.122 
 2023 157    48  27.90  27.40  12.40   4.438   5.382   0.764   4.618   3.614   0.764   0.000   0.000   2.850  148.19   47.07    5.13    7.24    0.00   34.70   0.814   0.172   0.642 
 2023 158    49  28.10  28.40  12.90   4.514   5.483   0.829   4.654   1.377   0.829   0.000   0.000   0.548  153.68   48.45    5.96    7.24    0.00   35.25   0.305   0.184   0.121 
 2023 159    50  29.50  30.20  12.80   4.699   5.740   0.920   4.820   1.463   0.920   0.438   0.000   0.105  159.42   49.91    6.88    7.68    0.00   35.36   0.311   0.196   0.116 
 2023 160    51  22.60  29.50  15.90   3.941   4.775   0.829   3.946   1.274   0.829   0.424   0.000   0.020  164.19   51.19    7.70    8.10    0.00   35.38   0.323   0.210   0.113 
 2023 161    52  23.20  26.10  15.20   3.975   4.762   0.893   3.869   3.721   0.893   0.000   0.000   2.828  168.95   54.91    8.60    8.10    0.00   38.21   0.936   0.225   0.711 
 2023 162    53  22.40  21.80  12.40   3.590   4.297   0.849   3.448   1.393   0.849   0.000   0.000   0.544  173.25   56.30    9.45    8.10    0.00   38.75   0.388   0.237   0.151 
 2023 163    54  24.80  21.60   6.90   3.593   4.369   0.871   3.497   1.265   0.871   0.290   0.000   0.105  177.62   57.56   10.32    8.39    0.00   38.85   0.352   0.242   0.110 
 2023 164    55  29.00  23.70   7.20   4.152   5.071   1.020   4.051   1.477   1.020   0.436   0.000   0.020  182.69   59.04   11.34    8.83    0.00   38.87   0.356   0.246   0.110 
 2023 165    56  27.10  27.00   7.00   3.998   4.906   1.010   3.896   1.449   1.010   0.435   0.000   0.004  187.60   60.49   12.35    9.26    0.00   38.88   0.362   0.253   0.110 
 2023 166    57  25.50  29.20  12.90   4.146   5.077   1.096   3.981   1.544   1.096   0.448   0.000   0.001  192.68   62.03   13.44    9.71    0.00   38.88   0.373   0.264   0.108 
 2023 167    58  21.80  23.50  14.40   3.699   4.390   1.052   3.339   1.428   1.052   0.146   0.000   0.230  197.07   63.46   14.50    9.86    0.00   39.11   0.386   0.284   0.102 
 2023 168    59  23.90  24.10  13.30   3.903   4.683   1.171   3.512   1.567   1.171   0.351   0.000   0.044  201.75   65.03   15.67   10.21    0.00   39.15   0.401   0.300   0.101 
 2023 169    60  29.10  30.00  11.30   4.575   5.623   1.432   4.191   1.904   1.432   0.080   0.000   0.392  207.37   66.93   17.10   10.29    0.00   39.55   0.416   0.313   0.103 
 2023 170    61  30.00  31.80  14.50   4.961   6.080   1.633   4.447   2.134   1.633   0.426   0.000   0.075  213.45   69.07   18.73   10.71    0.00   39.62   0.430   0.329   0.101 
 2023 171    62  12.30  28.10  20.30   2.631   3.083   0.905   2.178   1.151   0.905   0.231   0.000   0.015  216.53   70.22   19.64   10.95    0.00   39.64   0.437   0.344   0.093 
 2023 172    63  20.40  26.10  20.00   3.843   4.478   1.377   3.101   1.726   1.377   0.116   0.000   0.233  221.01   71.95   21.01   11.06    0.00   39.87   0.449   0.358   0.091 
 2023 173    64  18.20  26.40  16.90   3.376   3.996   1.256   2.740   3.220   1.256   0.000   0.000   1.963  225.01   75.16   22.27   11.06    0.00   41.83   0.954   0.372   0.582 
 2023 174    65  22.70  27.70  16.50   4.049   4.828   1.544   3.285   2.973   1.544   0.000   0.000   1.429  229.84   78.14   23.82   11.06    0.00   43.26   0.734   0.381   0.353 
 2023 175    66  30.30  28.10  13.90   4.856   5.918   1.888   4.030   4.775   1.888   0.000   0.000   2.887  235.76   82.91   25.70   11.06    0.00   46.15   0.983   0.389   0.595 
 2023 176    67  30.40  26.40  12.20   4.672   5.709   1.837   3.872   3.390   1.837   0.000   0.000   1.553  241.46   86.30   27.54   11.06    0.00   47.70   0.726   0.393   0.332 
 2023 177    68  29.30  27.80  10.40   4.520   5.539   1.783   3.756   2.206   1.783   0.125   0.000   0.299  247.00   88.51   29.32   11.19    0.00   48.00   0.488   0.395   0.094 
 2023 178    69  23.50  29.80  17.10   4.179   5.059   1.650   3.409   2.034   1.650   0.327   0.000   0.057  252.06   90.54   30.97   11.51    0.00   48.06   0.487   0.395   0.092 
 2023 179    70  27.50  29.00  23.80   5.138   6.064   2.052   4.012   2.504   2.052   0.441   0.000   0.011  258.13   93.05   33.02   11.95    0.00   48.07   0.487   0.399   0.088 
 2023 180    71  29.00  28.50  17.90   4.979   5.978   2.025   3.953   2.471   2.025   0.443   0.000   0.002  264.10   95.52   35.05   12.40    0.00   48.07   0.496   0.407   0.089 
 2023 181    72  14.00  23.40  16.10   2.668   3.117   1.094   2.023   2.889   1.094   0.000   0.000   1.795  267.22   98.41   36.14   12.40    0.00   49.87   1.083   0.410   0.673 
 2023 182    73  21.50  25.00  14.00   3.666   4.375   1.499   2.876   2.878   1.499   0.000   0.000   1.379  271.60  101.28   37.64   12.40    0.00   51.24   0.785   0.409   0.376 
 2023 183    74  29.10  30.70  13.30   4.725   5.793   1.923   3.869   2.802   1.923   0.000   0.000   0.879  277.39  104.09   39.57   12.40    0.00   52.12   0.593   0.407   0.186 
 2023 184    75  29.40  31.10  18.90   5.134   6.214   2.092   4.122   2.556   2.092   0.295   0.000   0.169  283.60  106.64   41.66   12.69    0.00   52.29   0.498   0.408   0.090 
 2023 185    76  23.60  27.20  16.00   4.098   4.915   1.726   3.189   2.086   1.726   0.327   0.000   0.033  288.52  108.73   43.38   13.02    0.00   52.33   0.509   0.421   0.088 
 2023 186    77   8.50  17.10  14.10   1.658   1.883   0.705   1.178   1.750   0.705   0.000   0.000   1.045  290.40  110.48   44.09   13.02    0.00   53.37   1.056   0.425   0.630 
 2023 187    78   9.60  19.10  11.50   1.863   2.171   0.777   1.393   2.014   0.777   0.000   0.000   1.236  292.57  112.49   44.87   13.02    0.00   54.61   1.081   0.417   0.663 
 2023 188    79  25.10  26.10  15.70   4.262   5.085   1.744   3.342   4.416   1.744   0.000   0.000   2.672  297.66  116.91   46.61   13.02    0.00   57.28   1.036   0.409   0.627 
 2023 189    80  13.80  19.00  11.30   2.391   2.793   0.970   1.823   2.588   0.970   0.000   0.000   1.618  300.45  119.50   47.58   13.02    0.00   58.90   1.082   0.406   0.677 
 2023 190    81  28.80  26.70  11.40   4.499   5.468   1.790   3.678   2.764   1.790   0.000   0.000   0.974  305.92  122.26   49.37   13.02    0.00   59.87   0.614   0.398   0.217 
 2023 191    82  28.00  32.70  17.10   4.896   5.955   1.919   4.036   2.374   1.919   0.267   0.000   0.187  311.87  124.63   51.29   13.29    0.00   60.06   0.485   0.392   0.093 
 2023 192    83  25.80  31.70  16.00   4.503   5.469   1.752   3.716   4.587   1.752   0.000   0.000   2.835  317.34  129.22   53.04   13.29    0.00   62.89   1.019   0.389   0.630 
 2023 193    84  27.70  30.00  19.40   4.939   5.902   1.903   3.999   2.448   1.903   0.000   0.000   0.545  323.24  131.67   54.94   13.29    0.00   63.44   0.496   0.385   0.110 
 2023 194    85  18.70  29.60  15.90   3.409   4.123   1.299   2.825   1.617   1.299   0.213   0.000   0.105  327.37  133.29   56.24   13.50    0.00   63.54   0.474   0.381   0.093 
 2023 195    86  20.00  27.10  15.60   3.536   4.235   1.325   2.910   3.907   1.325   0.000   0.000   2.582  331.60  137.19   57.57   13.50    0.00   66.13   1.105   0.375   0.730 
 2023 196    87  24.50  28.60  14.30   4.082   4.955   1.504   3.450   2.331   1.504   0.000   0.000   0.826  336.56  139.52   59.07   13.50    0.00   66.95   0.571   0.369   0.202 
 2023 197    88  23.10  29.80  18.30   4.106   4.947   1.489   3.459   1.878   1.489   0.231   0.000   0.159  341.50  141.40   60.56   13.73    0.00   67.11   0.457   0.363   0.095 
 2023 198    89  26.50  26.80  17.80   4.645   5.462   1.661   3.801   2.089   1.661   0.168   0.000   0.261  346.96  143.49   62.22   13.90    0.00   67.37   0.450   0.358   0.092 
 2023 199    90  18.70  28.50  16.00   3.431   4.092   1.208   2.884   1.533   1.208   0.275   0.000   0.050  351.06  145.02   63.43   14.17    0.00   67.42   0.447   0.352   0.095 
 2023 200    91  10.70  26.60  20.60   2.305   2.673   0.797   1.875   1.009   0.797   0.202   0.000   0.010  353.73  146.03   64.23   14.38    0.00   67.43   0.438   0.346   0.092 
 2023 201    92  11.70  23.50  16.80   2.316   2.699   0.782   1.917   0.998   0.782   0.214   0.000   0.002  356.43  147.03   65.01   14.59    0.00   67.43   0.431   0.338   0.093 
 2023 202    93  27.30  26.60  13.10   4.351   5.248   1.435   3.813   4.262   1.435   0.000   0.000   2.827  361.68  151.29   66.44   14.59    0.00   70.26   0.980   0.330   0.650 
 2023 203    94  27.10  31.60  14.20   4.411   5.411   1.432   3.979   1.977   1.432   0.000   0.000   0.545  367.09  153.27   67.88   14.59    0.00   70.80   0.448   0.325   0.124 
 2023 204    95  27.30  33.80  13.90   4.508   5.546   1.450   4.097   4.300   1.450   0.000   0.000   2.850  372.63  157.57   69.33   14.59    0.00   73.65   0.954   0.322   0.632 
 2023 205    96  26.40  34.70  18.10   4.486   5.521   1.432   4.089   2.397   1.432   0.000   0.000   0.965  378.16  159.97   70.76   14.59    0.00   74.62   0.534   0.319   0.215 
 2023 206    97  25.00  35.80  21.00   4.637   5.629   1.434   4.195   1.906   1.434   0.287   0.000   0.186  383.78  161.87   72.19   14.88    0.00   74.81   0.411   0.309   0.102 
 2023 207    98  24.10  37.40  17.60   4.163   5.131   1.246   3.885   1.684   1.246   0.402   0.000   0.036  388.92  163.56   73.44   15.28    0.00   74.84   0.405   0.299   0.105 
 2023 208    99  27.10  37.50  20.00   4.585   5.651   1.329   4.322   1.816   1.329   0.480   0.000   0.007  394.57  165.37   74.77   15.76    0.00   74.85   0.396   0.290   0.106 
 2023 209   100  24.40  34.80  17.90   4.197   5.160   1.179   3.981   1.628   1.179   0.447   0.000   0.001  399.73  167.00   75.95   16.21    0.00   74.85   0.388   0.281   0.107 
 2023 210   101  26.40  31.20  17.80   4.508   5.460   1.227   4.233   1.704   1.227   0.477   0.000   0.000  405.19  168.71   77.17   16.68    0.00   74.85   0.378   0.272   0.106 
 2023 211   102  24.40  34.50  19.90   4.425   5.369   1.168   4.201   1.782   1.168   0.000   0.000   0.614  410.55  170.49   78.34   16.68    0.00   75.46   0.403   0.264   0.139 
 2023 212   103  24.50  30.60  20.10   4.423   5.273   1.132   4.141   1.598   1.132   0.349   0.000   0.118  415.83  172.09   79.47   17.03    0.00   75.58   0.361   0.256   0.106 
 2023 213   104  23.30  29.80  21.00   4.276   5.057   1.061   3.996   3.617   1.061   0.000   0.000   2.555  420.88  175.70   80.53   17.03    0.00   78.14   0.846   0.248   0.598 
 2023 214   105  22.80  31.60  19.80   4.120   4.947   0.993   3.954   1.715   0.993   0.000   0.000   0.722  425.83  177.42   81.53   17.03    0.00   78.86   0.416   0.241   0.175 
 2023 215   106  19.60  28.20  18.50   3.575   4.222   0.837   3.385   3.694   0.837   0.000   0.000   2.857  430.05  181.11   82.36   17.03    0.00   81.72   1.033   0.234   0.799 
 2023 216   107  24.00  30.00  17.30   4.124   4.960   0.937   4.023   2.039   0.937   0.000   0.000   1.102  435.01  183.15   83.30   17.03    0.00   82.82   0.494   0.227   0.267 
 2023 217   108  24.90  29.10  16.80   4.158   5.014   0.917   4.097   3.791   0.917   0.000   0.000   2.874  440.03  186.94   84.22   17.03    0.00   85.69   0.912   0.221   0.691 
 2023 218   109  20.10  25.30  15.30   3.364   4.021   0.721   3.300   1.273   0.721   0.000   0.000   0.553  444.05  188.21   84.94   17.03    0.00   86.24   0.379   0.214   0.164 
 2023 219   110  12.30  22.00  12.00   2.191   2.593   0.456   2.138   0.697   0.456   0.135   0.000   0.106  446.64  188.91   85.39   17.17    0.00   86.35   0.318   0.208   0.110 
 2023 220   111  19.50  26.60  12.40   3.198   3.851   0.646   3.205   3.478   0.646   0.000   0.000   2.831  450.49  192.39   86.04   17.17    0.00   89.18   1.087   0.202   0.885 
 2023 221   112  23.70  27.00  15.60   3.857   4.625   0.757   3.868   1.383   0.757   0.000   0.000   0.626  455.12  193.77   86.80   17.17    0.00   89.81   0.359   0.196   0.162 
 2023 222   113  23.00  31.30  16.60   3.838   4.674   0.732   3.943   2.234   0.732   0.000   0.000   1.502  459.79  196.01   87.53   17.17    0.00   91.31   0.582   0.191   0.391 
 2023 223   114  25.40  31.60  14.30   4.027   4.928   0.746   4.182   1.217   0.746   0.182   0.000   0.289  464.72  197.22   88.28   17.35    0.00   91.60   0.302   0.185   0.117 
 2023 224   115  19.10  27.10  17.40   3.288   3.931   0.592   3.339   0.968   0.592   0.321   0.000   0.056  468.65  198.19   88.87   17.67    0.00   91.65   0.294   0.180   0.114 
 2023 225   116  15.90  22.40  12.40   2.617   3.116   0.458   2.659   0.757   0.458   0.289   0.000   0.011  471.77  198.95   89.33   17.96    0.00   91.66   0.289   0.175   0.114 
 2023 226   117  24.30  24.50  11.40   3.551   4.309   0.604   3.705   1.021   0.604   0.415   0.000   0.002  476.08  199.97   89.93   18.37    0.00   91.67   0.288   0.170   0.118 
 2023 227   118  25.40  31.10   7.50   3.542   4.365   0.585   3.780   1.011   0.585   0.426   0.000   0.000  480.44  200.98   90.51   18.80    0.00   91.67   0.285   0.165   0.120 
 2023 228   119  24.50  36.50  15.70   3.853   4.749   0.619   4.130   1.084   0.619   0.465   0.000   0.000  485.19  202.06   91.13   19.26    0.00   91.67   0.281   0.161   0.121 
 2023 229   120  22.80  28.30  14.30   3.551   4.318   0.555   3.763   0.979   0.555   0.424   0.000   0.000  489.51  203.04   91.69   19.69    0.00   91.67   0.276   0.156   0.119 
 2023 230   121  22.80  35.70  17.10   3.742   4.612   0.569   4.044   1.024   0.569   0.456   0.000   0.000  494.12  204.07   92.26   20.14    0.00   91.67   0.274   0.152   0.122 
 2023 231   122  23.70  34.80  20.30   4.062   4.949   0.600   4.348   1.090   0.600   0.490   0.000   0.000  499.07  205.16   92.86   20.63    0.00   91.67   0.268   0.148   0.121 
 2023 232   123  20.60  33.00  20.80   3.682   4.438   0.530   3.908   0.970   0.530   0.440   0.000   0.000  503.51  206.13   93.39   21.07    0.00   91.67   0.263   0.144   0.120 
 2023 233   124  23.90  38.60  22.00   4.024   4.959   0.564   4.396   1.059   0.564   0.495   0.000   0.000  508.47  207.19   93.95   21.57    0.00   91.67   0.263   0.140   0.123 
 2023 234   125  23.40  39.20  22.70   3.850   4.745   0.526   4.220   1.001   0.526   0.476   0.000   0.000  513.21  208.19   94.48   22.05    0.00   91.67   0.260   0.137   0.124 
 2023 235   126  21.30  38.60  21.00   3.572   4.403   0.476   3.927   0.918   0.476   0.443   0.000   0.000  517.62  209.11   94.95   22.49    0.00   91.67   0.257   0.133   0.124 
 2023 236   127  22.80  37.20  20.60   3.586   4.420   0.466   3.953   0.912   0.466   0.445   0.000   0.000  522.04  210.02   95.42   22.93    0.00   91.67   0.254   0.130   0.124 
 2023 237   128  15.70  30.20  20.50   2.875   3.448   0.366   3.083   0.613   0.366   0.248   0.000   0.000  525.48  210.63   95.78   23.18    0.00   91.67   0.213   0.127   0.086 
 2023 238   129  22.40  26.30  12.50   3.237   3.940   0.403   3.537   0.802   0.403   0.399   0.000   0.000  529.42  211.43   96.19   23.58    0.00   91.67   0.248   0.124   0.123 
 2023 239   130  23.00  30.80   9.20   3.177   3.915   0.387   3.528   0.785   0.387   0.398   0.000   0.000  533.34  212.22   96.57   23.98    0.00   91.67   0.247   0.122   0.125 
 2023 240   131  17.90  27.60  15.30   2.839   3.443   0.339   3.104   0.689   0.339   0.350   0.000   0.000  536.78  212.91   96.91   24.33    0.00   91.67   0.243   0.119   0.123 
 2023 241   132  21.00  30.30  12.30   3.045   3.753   0.357   3.396   0.739   0.357   0.383   0.000   0.000  540.53  213.65   97.27   24.71    0.00   91.67   0.243   0.117   0.126 
 2023 242   133  22.10  32.10  11.10   3.155   3.888   0.362   3.526   0.760   0.362   0.397   0.000   0.000  544.42  214.41   97.63   25.11    0.00   91.67   0.241   0.115   0.126 
 2023 243   134  21.60  34.80  17.70   3.310   4.080   0.373   3.706   0.791   0.373   0.418   0.000   0.000  548.50  215.20   98.01   25.52    0.00   91.67   0.239   0.113   0.126 
 2023 244   135  22.10  37.10  19.90   3.533   4.355   0.391   3.964   0.837   0.391   0.447   0.000   0.000  552.86  216.03   98.40   25.97    0.00   91.67   0.237   0.111   0.126 
 2023 245   136  22.50  39.40  16.40   3.256   4.014   0.354   3.660   0.766   0.354   0.412   0.000   0.000  556.87  216.80   98.75   26.38    0.00   91.67   0.235   0.109   0.127 
 2023 246   137  20.60  38.20  15.70   3.016   3.718   0.322   3.396   0.705   0.322   0.383   0.000   0.000  560.59  217.51   99.07   26.77    0.00   91.67   0.234   0.107   0.127 
 2023 247   138  21.30  36.30  15.30   3.108   3.831   0.326   3.504   0.721   0.326   0.395   0.000   0.000  564.42  218.23   99.40   27.16    0.00   91.67   0.232   0.105   0.127 
 2023 248   139  17.60  21.60   7.10   2.345   2.856   0.242   2.614   0.537   0.242   0.295   0.000   0.000  567.28  218.76   99.64   27.46    0.00   91.67   0.229   0.103   0.126 
 2023 249   140  19.70  26.80   5.50   2.462   3.035   0.250   2.784   0.564   0.250   0.314   0.000   0.000  570.31  219.33   99.89   27.77    0.00   91.67   0.229   0.102   0.127 
 2023 250   141  19.90  33.00  10.00   2.670   3.291   0.267   3.023   0.608   0.267   0.341   0.000   0.000  573.60  219.93  100.16   28.11    0.00   91.67   0.228   0.100   0.128 
 2023 251   142  20.40  29.60   8.40   2.662   3.281   0.263   3.018   0.603   0.263   0.340   0.000   0.000  576.88  220.54  100.42   28.45    0.00   91.67   0.226   0.099   0.128 
 2023 252   143  17.80  32.20  14.10   2.623   3.233   0.255   2.978   0.591   0.255   0.336   0.000   0.000  580.11  221.13  100.68   28.79    0.00   91.67   0.225   0.097   0.128 
 2023 253   144   6.40  18.50  13.10   1.234   1.408   0.118   1.290   0.264   0.118   0.145   0.000   0.000  581.52  221.39  100.79   28.93    0.00   91.67   0.214   0.096   0.118 
 2023 254   145  14.10  20.60   9.20   1.992   2.387   0.188   2.199   2.139   0.188   0.000   0.000   1.951  583.91  223.53  100.98   28.93    0.00   93.62   1.074   0.095   0.979 
 2023 255   146  20.90  23.70   9.90   2.634   3.209   0.246   2.964   1.497   0.246   0.000   0.000   1.251  587.12  225.03  101.23   28.93    0.00   94.87   0.568   0.093   0.475 
 2023 256   147  19.90  24.90   9.80   2.554   3.119   0.235   2.884   0.560   0.235   0.084   0.000   0.241  590.24  225.59  101.46   29.02    0.00   95.11   0.219   0.092   0.127 
 2023 257   148  13.60  24.40  12.40   2.067   2.483   0.188   2.295   0.446   0.188   0.212   0.000   0.046  592.72  226.03  101.65   29.23    0.00   95.16   0.216   0.091   0.125 
 2023 258   149  11.10  22.70  13.20   1.797   2.135   0.161   1.973   0.554   0.161   0.000   0.000   0.393  594.86  226.59  101.81   29.23    0.00   95.55   0.308   0.090   0.218 
 2023 259   150  19.90  26.80   9.70   2.457   3.022   0.217   2.805   2.706   0.217   0.000   0.000   2.489  597.88  229.29  102.03   29.23    0.00   98.04   1.102   0.089   1.013 
 2023 260   151  19.80  28.40   6.00   2.320   2.860   0.203   2.657   0.740   0.203   0.000   0.000   0.537  600.74  230.03  102.23   29.23    0.00   98.57   0.319   0.087   0.231 
 2023 261   152  17.90  32.40  10.20   2.236   2.756   0.193   2.563   0.482   0.193   0.186   0.000   0.103  603.49  230.52  102.42   29.41    0.00   98.68   0.215   0.086   0.129 
 2023 262   153  18.70  32.10   8.70   2.211   2.725   0.189   2.536   0.474   0.189   0.266   0.000   0.020  606.22  230.99  102.61   29.68    0.00   98.70   0.215   0.085   0.129 
 2023 263   154  16.60  30.80   8.60   2.061   2.540   0.174   2.366   0.440   0.174   0.263   0.000   0.004  608.76  231.43  102.79   29.94    0.00   98.70   0.214   0.084   0.129 
 2023 264   155  13.50  23.00  12.30   1.955   2.327   0.165   2.162   2.083   0.165   0.000   0.000   1.918  611.08  233.51  102.95   29.94    0.00  100.62   1.066   0.084   0.982 
 2023 265   156   6.50  20.60  12.00   1.247   1.459   0.105   1.354   1.306   0.105   0.000   0.000   1.201  612.54  234.82  103.06   29.94    0.00  101.82   1.047   0.084   0.963 
 2023 266   157  19.10  22.40  11.30   2.301   2.775   0.194   2.581   0.501   0.194   0.000   0.000   0.307  615.32  235.32  103.25   29.94    0.00  102.13   0.218   0.084   0.134 
 2023 267   158  18.80  25.40   7.90   2.116   2.605   0.178   2.427   2.003   0.178   0.000   0.000   1.824  617.92  237.32  103.43   29.94    0.00  103.95   0.946   0.084   0.862 
 2023 268   159  18.70  27.40   5.00   1.968   2.425   0.166   2.259   0.517   0.166   0.000   0.000   0.351  620.35  237.84  103.59   29.94    0.00  104.30   0.263   0.084   0.178 
