*N2O emissions output file

*DSSAT Cropping System Model Ver. 4.8.2.000 -release  APR 04, 2025 15:50:50

*RUN   1        : farm_23                   MZCER048 UNLI2309    1
 MODEL          : MZCER048 - Maize
 EXPERIMENT     : UNLI2309 MZ PIO1366
 DATA PATH      :
 TREATMENT  1   : farm_23                   MZCER048
  
!              |------------------------------ Cumulative -----------------------------|------------------------------ Daily ----------------------------------|
!               N2Oemit  N2emit  NOemit   Denit  Nitrif   N2O-denit+nit      N2      NO N2Oemit  N2emit  NOemit   Denit  Nitrif   N2O-denit+nit      N2      NO   Denitrification (g[N]/ha) by soil depth (cm):                                   Nitrification (g[N]/ha) by soil depth (cm):                                     N2O flux (g[N]/ha) by soil depth (cm):                                          N2 flux (g[N]/ha) by soil depth (cm):                                           NO flux (g[N]/ha) by soil depth (cm):
!                 kg/ha   kg/ha   kg/ha   kg/ha   kg/ha   kg/ha   kg/ha   kg/ha   kg/ha    g/ha    g/ha    g/ha    g/ha    g/ha    g/ha    g/ha    g/ha    g/ha     0-5    5-15   15-23   23-31   31-46   46-61   61-91  91-106 106-122 122-183     0-5    5-15   15-23   23-31   31-46   46-61   61-91  91-106 106-122 122-183     0-5    5-15   15-23   23-31   31-46   46-61   61-91  91-106 106-122 122-183     0-5    5-15   15-23   23-31   31-46   46-61   61-91  91-106 106-122 122-183     0-5    5-15   15-23   23-31   31-46   46-61   61-91  91-106 106-122 122-183
@YEAR DOY   DAS   N2OEC    N2EC    NOEC    NDNC    NITC   N2ODC   N2ONC   N2FLC   NOFLC  N2OGED   N2GED   NOGED    NDND   NITRD   N2ODD   N2OND   N2FLD   NOFLD   NDN1D   NDN2D   NDN3D   NDN4D   NDN5D   NDN6D   NDN7D   NDN8D   NDN9D   NDN10   NIT1D   NIT2D   NIT3D   NIT4D   NIT5D   NIT6D   NIT7D   NIT8D   NIT9D   NIT10   N2O1D   N2O2D   N2O3D   N2O4D   N2O5D   N2O6D   N2O7D   N2O8D   N2O9D   N2O10   N2F1D   N2F2D   N2F3D   N2F4D   N2F5D   N2F6D   N2F7D   N2F8D   N2F9D   N2F10   NOF1D   NOF2D   NOF3D   NOF4D   NOF5D   NOF6D   NOF7D   NOF8D   NOF9D   NOF10
 2023 110     1    0.00    0.00    0.00    0.00     0.3   0.000   0.000   0.000   0.001     0.0     0.0     0.0     0.0     291    0.00    0.29    0.00    0.74     0.0     0.0     0.0     0.0     0.0     0.0     0.0     0.0     0.0     0.0      8.     15.     12.     11.     22.     21.     53.     26.     27.     48.     0.0     0.0     0.0     0.0     0.0     0.0     0.1     0.0     0.0     0.0     0.0     0.0     0.0     0.0     0.0     0.0     0.0     0.0     0.0     0.0     0.0     0.0     0.0     0.0     0.0     0.0     0.2     0.1     0.1     0.1
 2023 111     2    0.00    0.00    0.00    0.00     0.5   0.000   0.001   0.000   0.001     0.0     0.0     0.0     0.0     258    0.00    0.26    0.00    0.65     0.0     0.0     0.0     0.0     0.0     0.0     0.0     0.0     0.0     0.0      8.     15.     12.     11.     20.     19.     46.     22.     23.     41.     0.0     0.0     0.0     0.0     0.0     0.0     0.0     0.0     0.0     0.0     0.0     0.0     0.0     0.0     0.0     0.0     0.0     0.0     0.0     0.0     0.0     0.0     0.0     0.0     0.0     0.0     0.1     0.1     0.1     0.1
 2023 112     3    0.00    0.00    0.00    0.00     0.8   0.000   0.001   0.000   0.002     0.0     0.0     0.0     0.0     220    0.00    0.22    0.00    0.55     0.0     0.0     0.0     0.0     0.0     0.0     0.0     0.0     0.0     0.0      7.     14.     11.     10.     18.     17.     38.     18.     19.     34.     0.0     0.0     0.0     0.0     0.0     0.0     0.0     0.0     0.0     0.0     0.0     0.0     0.0     0.0     0.0     0.0     0.0     0.0     0.0     0.0     0.0     0.0     0.0     0.0     0.0     0.0     0.1     0.1     0.1     0.1
 2023 113     4    0.00    0.00    0.00    0.00     0.9   0.000   0.001   0.000   0.002     0.0     0.0     0.0     0.0     181    0.00    0.18    0.00    0.45     0.0     0.0     0.0     0.0     0.0     0.0     0.0     0.0     0.0     0.0      6.     12.      9.      9.     15.     14.     30.     14.     15.     28.     0.0     0.0     0.0     0.0     0.0     0.0     0.0     0.0     0.0     0.0     0.0     0.0     0.0     0.0     0.0     0.0     0.0     0.0     0.0     0.0     0.0     0.0     0.0     0.0     0.0     0.0     0.1     0.0     0.0     0.1
 2023 114     5    0.00    0.00    0.00    0.00     1.1   0.000   0.001   0.000   0.003     0.0     0.0     0.0     0.0     148    0.00    0.15    0.00    0.37     0.0     0.0     0.0     0.0     0.0     0.0     0.0     0.0     0.0     0.0      5.     10.      7.      7.     12.     11.     24.     12.     12.     23.     0.0     0.0     0.0     0.0     0.0     0.0     0.0     0.0     0.0     0.0     0.0     0.0     0.0     0.0     0.0     0.0     0.0     0.0     0.0     0.0     0.0     0.0     0.0     0.0     0.0     0.0     0.1     0.0     0.0     0.1
 2023 115     6    0.00    0.00    0.00    0.00     1.2   0.000   0.001   0.000   0.003     0.0     0.0     0.0     0.0     129    0.00    0.13    0.00    0.32     0.0     0.0     0.0     0.0     0.0     0.0     0.0     0.0     0.0     0.0      4.      9.      6.      6.     10.     10.     21.     10.     11.     20.     0.0     0.0     0.0     0.0     0.0     0.0     0.0     0.0     0.0     0.0     0.0     0.0     0.0     0.0     0.0     0.0     0.0     0.0     0.0     0.0     0.0     0.0     0.0     0.0     0.0     0.0     0.1     0.0     0.0     0.1
 2023 116     7    0.00    0.00    0.00    0.00     1.3   0.000   0.001   0.000   0.003     0.0     0.0     0.0     0.0     119    0.00    0.12    0.00    0.29     0.0     0.0     0.0     0.0     0.0     0.0     0.0     0.0     0.0     0.0      4.      8.      6.      6.     10.      9.     19.      9.     10.     18.     0.0     0.0     0.0     0.0     0.0     0.0     0.0     0.0     0.0     0.0     0.0     0.0     0.0     0.0     0.0     0.0     0.0     0.0     0.0     0.0     0.0     0.0     0.0     0.0     0.0     0.0     0.1     0.0     0.0     0.1
 2023 117     8    0.00    0.00    0.00    0.00     1.5   0.000   0.001   0.000   0.004     0.0     0.0     0.0     0.0     120    0.00    0.12    0.00    0.29     0.0     0.0     0.0     0.0     0.0     0.0     0.0     0.0     0.0     0.0      4.      8.      6.      6.     10.     10.     19.      9.     10.     18.     0.0     0.0     0.0     0.0     0.0     0.0     0.0     0.0     0.0     0.0     0.0     0.0     0.0     0.0     0.0     0.0     0.0     0.0     0.0     0.0     0.0     0.0     0.0     0.0     0.0     0.0     0.1     0.0     0.0     0.1
 2023 118     9    0.00    0.00    0.00    0.00     1.6   0.000   0.002   0.000   0.004     0.0     0.0     0.0     0.0     126    0.00    0.13    0.00    0.31     0.0     0.0     0.0     0.0     0.0     0.0     0.0     0.0     0.0     0.0      5.      9.      7.      7.     11.     10.     20.      9.     10.     18.     0.0     0.0     0.0     0.0     0.0     0.0     0.0     0.0     0.0     0.0     0.0     0.0     0.0     0.0     0.0     0.0     0.0     0.0     0.0     0.0     0.0     0.0     0.0     0.0     0.0     0.0     0.1     0.0     0.0     0.1
 2023 119    10    0.00    0.00    0.00    0.00     1.7   0.000   0.002   0.000   0.004     0.0     0.0     0.0     0.0     124    0.00    0.12    0.00    0.30     0.0     0.0     0.0     0.0     0.0     0.0     0.0     0.0     0.0     0.0      5.     10.      7.      7.     11.     10.     19.      9.      9.     17.     0.0     0.0     0.0     0.0     0.0     0.0     0.0     0.0     0.0     0.0     0.0     0.0     0.0     0.0     0.0     0.0     0.0     0.0     0.0     0.0     0.0     0.0     0.0     0.0     0.0     0.0     0.1     0.0     0.0     0.0
 2023 120    11    0.00    0.00    0.00    0.00     1.8   0.000   0.002   0.000   0.005     0.0     0.0     0.0     0.0     122    0.00    0.12    0.00    0.29     0.0     0.0     0.0     0.0     0.0     0.0     0.0     0.0     0.0     0.0      6.     11.      8.      8.     11.     11.     19.      8.      9.     16.     0.0     0.0     0.0     0.0     0.0     0.0     0.0     0.0     0.0     0.0     0.0     0.0     0.0     0.0     0.0     0.0     0.0     0.0     0.0     0.0     0.0     0.0     0.0     0.0     0.0     0.0     0.1     0.0     0.0     0.0
 2023 121    12    0.00    0.00    0.00    0.00     2.0   0.000   0.002   0.000   0.005     0.0     0.0     0.0     0.0     119    0.00    0.12    0.00    0.28     0.0     0.0     0.0     0.0     0.0     0.0     0.0     0.0     0.0     0.0      6.     11.      8.      8.     12.     11.     18.      8.      8.     15.     0.0     0.0     0.0     0.0     0.0     0.0     0.0     0.0     0.0     0.0     0.0     0.0     0.0     0.0     0.0     0.0     0.0     0.0     0.0     0.0     0.0     0.0     0.0     0.0     0.0     0.0     0.1     0.0     0.0     0.0
 2023 122    13    0.00    0.00    0.00    0.00     2.1   0.000   0.002   0.000   0.005     0.0     0.0     0.0     0.0     109    0.00    0.11    0.00    0.25     0.0     0.0     0.0     0.0     0.0     0.0     0.0     0.0     0.0     0.0      6.     11.      8.      8.     11.     10.     16.      7.      7.     13.     0.0     0.0     0.0     0.0     0.0     0.0     0.0     0.0     0.0     0.0     0.0     0.0     0.0     0.0     0.0     0.0     0.0     0.0     0.0     0.0     0.0     0.0     0.0     0.0     0.0     0.0     0.0     0.0     0.0     0.0
 2023 123    14    0.00    0.00    0.00    0.00     2.2   0.000   0.002   0.000   0.005     0.0     0.0     0.0     0.0      99    0.00    0.10    0.00    0.23     0.0     0.0     0.0     0.0     0.0     0.0     0.0     0.0     0.0     0.0      6.     11.      8.      7.     10.      9.     14.      6.      6.     11.     0.0     0.0     0.0     0.0     0.0     0.0     0.0     0.0     0.0     0.0     0.0     0.0     0.0     0.0     0.0     0.0     0.0     0.0     0.0     0.0     0.0     0.0     0.0     0.0     0.0     0.0     0.0     0.0     0.0     0.0
 2023 124    15    0.00    0.00    0.00    0.00     2.3   0.000   0.002   0.000   0.006     0.0     0.0     0.0     0.0     104    0.00    0.10    0.00    0.88     0.0     0.0     0.0     0.0     0.0     0.0     0.0     0.0     0.0     0.0      7.     12.      9.      8.     11.     10.     15.      6.      6.     11.     0.0     0.0     0.0     0.0     0.0     0.0     0.0     0.0     0.0     0.0     0.0     0.0     0.0     0.0     0.0     0.0     0.0     0.0     0.0     0.0     0.0     0.1     0.1     0.1     0.1     0.1     0.2     0.1     0.1     0.1
 2023 125    16    0.00    0.00    0.00    0.00     2.4   0.000   0.002   0.000   0.007     0.0     0.0     0.0     0.0     108    0.00    0.11    0.00    0.72     0.0     0.0     0.0     0.0     0.0     0.0     0.0     0.0     0.0     0.0      4.     13.     10.      9.     12.     11.     16.      6.      6.     11.     0.0     0.0     0.0     0.0     0.0     0.0     0.0     0.0     0.0     0.0     0.0     0.0     0.0     0.0     0.0     0.0     0.0     0.0     0.0     0.0     0.0     0.1     0.1     0.0     0.1     0.1     0.1     0.1     0.1     0.1
 2023 126    17    0.00    0.00    0.00    0.00     2.5   0.000   0.002   0.000   0.007     0.0     0.0     0.0     0.0     119    0.00    0.12    0.00    0.58     0.0     0.0     0.0     0.0     0.0     0.0     0.0     0.0     0.0     0.0      5.     12.     10.     12.     15.     13.     18.      6.      6.     11.     0.0     0.0     0.0     0.0     0.0     0.0     0.0     0.0     0.0     0.0     0.0     0.0     0.0     0.0     0.0     0.0     0.0     0.0     0.0     0.0     0.0     0.0     0.0     0.0     0.1     0.1     0.1     0.0     0.0     0.1
 2023 127    18    0.00    0.00    0.00    0.00     2.6   0.000   0.003   0.000   0.008     0.0     0.0     0.0     0.0     146    0.00    0.15    0.00    0.54     0.0     0.0     0.0     0.0     0.0     0.0     0.0     0.0     0.0     0.0     10.     18.     13.     12.     18.     16.     22.      7.      7.     12.     0.0     0.0     0.0     0.0     0.0     0.0     0.0     0.0     0.0     0.0     0.0     0.0     0.0     0.0     0.0     0.0     0.0     0.0     0.0     0.0     0.0     0.0     0.0     0.0     0.1     0.1     0.1     0.0     0.0     0.1
 2023 128    19    0.00    0.00    0.00    0.00     2.8   0.000   0.003   0.000   0.009     0.0     0.0     0.1     0.0     181    0.00    0.18    0.00    0.54     0.0     0.0     0.0     0.0     0.0     0.0     0.0     0.0     0.0     0.0     14.     25.     17.     16.     22.     19.     26.      8.      8.     13.     0.0     0.0     0.0     0.0     0.0     0.0     0.0     0.0     0.0     0.0     0.0     0.0     0.0     0.0     0.0     0.0     0.0     0.0     0.0     0.0     0.0     0.0     0.0     0.0     0.1     0.1     0.1     0.0     0.0     0.1
 2023 129    20    0.00    0.00    0.00    0.00     3.0   0.000   0.003   0.000   0.009     0.0     0.0     0.1     0.3     210    0.01    0.21    0.27    0.55     0.1     0.2     0.0     0.0     0.0     0.0     0.0     0.0     0.0     0.0     17.     31.     22.     20.     25.     22.     30.      9.      8.     14.     0.0     0.0     0.0     0.0     0.0     0.0     0.0     0.0     0.0     0.0     0.1     0.2     0.0     0.0     0.0     0.0     0.0     0.0     0.0     0.0     0.0     0.1     0.0     0.0     0.1     0.1     0.1     0.0     0.0     0.1
 2023 130    21    0.00    0.00    0.00    0.00     3.3   0.000   0.003   0.001   0.010     0.0     0.0     0.1     0.4     227    0.01    0.23    0.35    0.50     0.0     0.1     0.2     0.0     0.0     0.0     0.0     0.0     0.0     0.0     20.     33.     24.     21.     27.     23.     32.      9.      9.     15.     0.0     0.0     0.0     0.0     0.0     0.0     0.0     0.0     0.0     0.0     0.0     0.1     0.2     0.0     0.0     0.0     0.0     0.0     0.0     0.0     0.0     0.1     0.0     0.0     0.1     0.0     0.1     0.0     0.0     0.0
 2023 131    22    0.00    0.00    0.00    0.01     3.5   0.000   0.003   0.006   0.010     0.0     0.0     0.0     5.5     200    0.14    0.20    5.40    0.39     0.0     2.2     2.0     1.4     0.0     0.0     0.0     0.0     0.0     0.0     11.     22.     18.     19.     27.     25.     34.      9.      9.     15.     0.0     0.1     0.1     0.1     0.0     0.0     0.0     0.0     0.0     0.0     0.0     2.2     1.9     1.3     0.0     0.0     0.0     0.0     0.0     0.0     0.0     0.0     0.0     0.0     0.0     0.0     0.1     0.0     0.0     0.0
 2023 132    23    0.00    0.00    0.00    0.01     3.7   0.000   0.004   0.012   0.010     0.0     0.0     0.0     6.6     202    0.16    0.20    6.47    0.34     0.0     1.8     2.2     2.7     0.0     0.0     0.0     0.0     0.0     0.0     12.     24.     18.     16.     24.     24.     36.     10.      9.     15.     0.0     0.1     0.1     0.1     0.0     0.0     0.0     0.0     0.0     0.0     0.0     1.7     2.1     2.6     0.0     0.0     0.0     0.0     0.0     0.0     0.0     0.0     0.0     0.0     0.0     0.0     0.1     0.0     0.0     0.0
 2023 133    24    0.00    0.00    0.00    0.02     3.9   0.000   0.004   0.018   0.011     0.0     0.0     0.0     5.2     199    0.11    0.20    5.05    0.27     0.0     1.2     1.7     2.2     0.0     0.0     0.0     0.0     0.0     0.0     13.     26.     19.     17.     20.     20.     37.     10.      9.     15.     0.0     0.0     0.1     0.1     0.0     0.0     0.0     0.0     0.0     0.0     0.0     1.2     1.6     2.2     0.0     0.0     0.0     0.0     0.0     0.0     0.0     0.0     0.0     0.0     0.0     0.0     0.1     0.0     0.0     0.0
 2023 134    25    0.00    0.00    0.00    0.02     4.1   0.001   0.004   0.023   0.011     0.0     0.1     0.1     6.0     233    0.14    0.23    5.89    0.30     0.0     0.6     1.2     1.9     2.3     0.0     0.0     0.0     0.0     0.0     19.     36.     23.     20.     26.     22.     38.     10.     10.     16.     0.0     0.0     0.0     0.1     0.1     0.0     0.0     0.0     0.0     0.0     0.0     0.6     1.2     1.8     2.2     0.0     0.0     0.0     0.0     0.0     0.0     0.0     0.0     0.0     0.0     0.0     0.0     0.0     0.0     0.0
 2023 135    26    0.00    0.00    0.00    0.03     4.3   0.001   0.004   0.029   0.011     0.0     0.2     0.1     5.9     242    0.14    0.24    5.75    0.34     0.1     0.3     0.7     1.3     1.5     2.0     0.0     0.0     0.0     0.0     21.     38.     26.     22.     28.     23.     37.      9.      9.     15.     0.0     0.0     0.0     0.1     0.1     0.1     0.0     0.0     0.0     0.0     0.1     0.3     0.7     1.3     1.4     2.0     0.0     0.0     0.0     0.0     0.0     0.0     0.0     0.0     0.0     0.0     0.0     0.0     0.0     0.0
 2023 136    27    0.00    0.00    0.00    0.03     4.6   0.001   0.005   0.033   0.012     0.1     0.3     0.1     3.7     234    0.09    0.23    3.63    0.35     0.0     0.2     0.4     0.8     0.9     1.4     0.0     0.0     0.0     0.0     20.     36.     26.     23.     28.     24.     34.      9.      9.     14.     0.0     0.0     0.0     0.0     0.1     0.1     0.0     0.0     0.0     0.0     0.0     0.2     0.4     0.8     0.9     1.3     0.0     0.0     0.0     0.0     0.0     0.0     0.0     0.0     0.0     0.0     0.0     0.0     0.0     0.0
 2023 137    28    0.00    0.00    0.00    0.04     4.8   0.001   0.005   0.035   0.012     0.1     0.4     0.1     2.2     235    0.05    0.24    2.10    0.46     0.0     0.1     0.2     0.3     0.4     0.5     0.4     0.3     0.0     0.0     19.     36.     27.     25.     29.     25.     32.      8.      8.     13.     0.0     0.0     0.0     0.0     0.0     0.0     0.0     0.0     0.0     0.0     0.0     0.1     0.2     0.3     0.3     0.5     0.4     0.3     0.0     0.0     0.0     0.1     0.0     0.0     0.0     0.0     0.1     0.0     0.0     0.0
 2023 138    29    0.00    0.00    0.00    0.04     5.0   0.001   0.005   0.037   0.013     0.1     0.5     0.1     1.9     240    0.05    0.24    1.88    0.48     0.0     0.1     0.1     0.2     0.2     0.4     0.3     0.3     0.3     0.0     21.     36.     27.     26.     29.     26.     33.      8.      8.     13.     0.0     0.0     0.0     0.0     0.0     0.0     0.0     0.0     0.0     0.0     0.0     0.1     0.1     0.2     0.2     0.4     0.3     0.3     0.3     0.0     0.0     0.1     0.0     0.0     0.0     0.0     0.1     0.0     0.0     0.0
 2023 139    30    0.00    0.00    0.00    0.04     5.3   0.001   0.005   0.038   0.013     0.1     0.6     0.1     0.8     237    0.02    0.24    0.74    0.49     0.0     0.0     0.0     0.1     0.1     0.1     0.1     0.1     0.1     0.0     20.     35.     27.     26.     29.     26.     32.      8.      8.     13.     0.0     0.0     0.0     0.0     0.0     0.0     0.0     0.0     0.0     0.0     0.0     0.0     0.0     0.1     0.1     0.1     0.1     0.1     0.1     0.0     0.0     0.1     0.0     0.0     0.1     0.0     0.1     0.0     0.0     0.0
 2023 140    31    0.00    0.00    0.00    0.04     5.5   0.001   0.006   0.038   0.014     0.1     0.7     0.2     0.6     230    0.01    0.23    0.54    0.48     0.0     0.0     0.0     0.0     0.1     0.1     0.1     0.0     0.0     0.1     19.     34.     26.     25.     28.     26.     31.      8.      8.     13.     0.0     0.0     0.0     0.0     0.0     0.0     0.0     0.0     0.0     0.0     0.0     0.0     0.0     0.0     0.1     0.1     0.1     0.0     0.0     0.1     0.0     0.1     0.0     0.0     0.1     0.0     0.1     0.0     0.0     0.0
 2023 141    32    0.00    0.00    0.00    0.04     5.7   0.001   0.006   0.039   0.014     0.1     0.8     0.2     0.7     236    0.02    0.24    0.67    0.50     0.0     0.0     0.1     0.0     0.1     0.1     0.1     0.0     0.0     0.1     20.     35.     27.     26.     29.     26.     32.      8.      8.     13.     0.0     0.0     0.0     0.0     0.0     0.0     0.0     0.0     0.0     0.0     0.0     0.0     0.0     0.0     0.1     0.1     0.1     0.0     0.0     0.1     0.0     0.1     0.0     0.0     0.1     0.0     0.1     0.0     0.0     0.0
 2023 142    33    0.00    0.00    0.00    0.04     6.0   0.001   0.006   0.039   0.015     0.1     0.8     0.2     0.7     248    0.02    0.25    0.67    0.52     0.0     0.0     0.0     0.0     0.1     0.1     0.1     0.0     0.0     0.1     20.     40.     28.     27.     30.     27.     34.      8.      8.     13.     0.0     0.0     0.0     0.0     0.0     0.0     0.0     0.0     0.0     0.0     0.0     0.0     0.0     0.0     0.1     0.1     0.1     0.0     0.0     0.1     0.0     0.1     0.0     0.0     0.1     0.0     0.1     0.0     0.0     0.0
 2023 143    34    0.00    0.01    0.00    0.04     6.3   0.001   0.006   0.040   0.015     0.1     0.9     0.2     0.7     259    0.02    0.26    0.66    0.55     0.0     0.0     0.0     0.0     0.1     0.1     0.1     0.0     0.0     0.1     21.     41.     30.     28.     32.     29.     35.      9.      8.     14.     0.0     0.0     0.0     0.0     0.0     0.0     0.0     0.0     0.0     0.0     0.0     0.0     0.0     0.0     0.1     0.1     0.1     0.0     0.0     0.1     0.0     0.1     0.0     0.0     0.1     0.1     0.1     0.0     0.0     0.0
 2023 144    35    0.00    0.01    0.00    0.04     6.5   0.001   0.007   0.041   0.016     0.1     0.9     0.2     0.7     270    0.02    0.27    0.65    0.57     0.0     0.0     0.0     0.0     0.1     0.1     0.1     0.1     0.0     0.1     22.     42.     33.     29.     33.     30.     37.      9.      9.     14.     0.0     0.0     0.0     0.0     0.0     0.0     0.0     0.0     0.0     0.0     0.0     0.0     0.0     0.0     0.1     0.1     0.1     0.0     0.0     0.1     0.0     0.1     0.1     0.0     0.1     0.1     0.1     0.0     0.0     0.0
 2023 145    36    0.00    0.01    0.00    0.04     6.8   0.001   0.007   0.041   0.016     0.1     1.0     0.2     0.7     301    0.02    0.30    0.66    0.63     0.0     0.0     0.0     0.0     0.1     0.1     0.2     0.1     0.1     0.1     24.     47.     37.     33.     37.     33.     41.     10.     10.     16.     0.0     0.0     0.0     0.0     0.0     0.0     0.0     0.0     0.0     0.0     0.0     0.0     0.0     0.0     0.1     0.1     0.2     0.1     0.1     0.1     0.0     0.1     0.1     0.1     0.1     0.1     0.1     0.0     0.0     0.0
 2023 146    37    0.00    0.01    0.00    0.04     7.2   0.001   0.007   0.042   0.017     0.1     1.0     0.2     0.7     334    0.02    0.33    0.69    0.70     0.0     0.0     0.0     0.0     0.1     0.1     0.2     0.1     0.1     0.1     27.     51.     40.     39.     40.     36.     46.     11.     11.     17.     0.0     0.1     0.0     0.0     0.0     0.0     0.1     0.0     0.0     0.0     0.0     0.0     0.0     0.0     0.1     0.1     0.2     0.1     0.1     0.1     0.0     0.1     0.1     0.1     0.1     0.1     0.1     0.0     0.0     0.1
 2023 147    38    0.00    0.01    0.00    0.04     7.4   0.001   0.007   0.044   0.017     0.0     0.2     0.0     1.5     285    0.04    0.29    1.50    0.50     0.0     0.0     0.0     0.0     0.5     0.4     0.2     0.1     0.1     0.1     13.     32.     28.     31.     40.     37.     48.     12.     11.     18.     0.0     0.0     0.0     0.0     0.1     0.0     0.1     0.0     0.0     0.0     0.0     0.0     0.0     0.0     0.5     0.4     0.2     0.1     0.1     0.1     0.0     0.0     0.0     0.0     0.1     0.1     0.1     0.0     0.0     0.1
 2023 148    39    0.00    0.01    0.00    0.05     7.8   0.001   0.008   0.046   0.018     0.1     0.5     0.1     2.6     306    0.08    0.31    2.55    0.53     0.0     0.0     0.0     0.0     0.9     0.7     0.4     0.2     0.2     0.1     22.     42.     30.     30.     39.     36.     49.     12.     12.     19.     0.0     0.0     0.0     0.0     0.1     0.1     0.1     0.0     0.0     0.0     0.0     0.0     0.0     0.0     0.8     0.7     0.4     0.2     0.2     0.1     0.0     0.0     0.0     0.0     0.1     0.1     0.1     0.0     0.0     0.1
 2023 149    40    0.00    0.01    0.00    0.06     8.0   0.001   0.008   0.054   0.019     0.0     0.2     0.1     7.8     272    0.24    0.27    7.51    0.49     0.0     0.0     0.0     0.0     2.9     2.2     1.0     0.6     0.4     0.3     16.     33.     25.     24.     32.     32.     50.     12.     12.     20.     0.0     0.0     0.0     0.0     0.1     0.1     0.1     0.0     0.0     0.0     0.0     0.0     0.0     0.0     2.8     2.2     1.0     0.5     0.4     0.3     0.0     0.0     0.0     0.0     0.1     0.1     0.1     0.0     0.0     0.1
 2023 150    41    0.00    0.01    0.00    0.06     8.3   0.002   0.008   0.062   0.019     0.1     0.4     0.1     8.6     311    0.26    0.31    8.38    0.54     0.0     0.0     0.0     0.0     2.1     2.4     1.4     0.9     0.7     0.5     22.     45.     30.     28.     37.     33.     51.     13.     12.     20.     0.0     0.0     0.0     0.0     0.1     0.1     0.1     0.0     0.0     0.0     0.0     0.0     0.0     0.0     2.0     2.3     1.4     0.9     0.7     0.5     0.0     0.0     0.0     0.0     0.1     0.1     0.1     0.0     0.0     0.1
 2023 151    42    0.00    0.01    0.00    0.07     8.7   0.002   0.009   0.066   0.020     0.1     0.8     0.2     4.0     369    0.09    0.37    3.86    0.64     0.1     0.2     0.3     0.3     0.7     0.9     0.5     0.3     0.3     0.2     29.     56.     41.     39.     45.     40.     53.     13.     13.     21.     0.0     0.1     0.0     0.0     0.1     0.1     0.1     0.0     0.0     0.0     0.1     0.2     0.2     0.3     0.6     0.9     0.5     0.3     0.3     0.2     0.0     0.1     0.0     0.0     0.1     0.1     0.1     0.0     0.0     0.1
 2023 152    43    0.00    0.01    0.00    0.07     9.1   0.002   0.009   0.067   0.020     0.2     1.1     0.3     1.4     404    0.03    0.40    1.41    0.77     0.0     0.1     0.1     0.1     0.2     0.3     0.2     0.1     0.1     0.1     33.     61.     47.     44.     49.     45.     56.     14.     14.     22.     0.0     0.1     0.0     0.0     0.1     0.1     0.1     0.0     0.0     0.0     0.0     0.1     0.1     0.1     0.2     0.3     0.2     0.1     0.1     0.1     0.1     0.1     0.1     0.1     0.1     0.1     0.2     0.0     0.0     0.1
 2023 153    44    0.00    0.01    0.00    0.07     9.5   0.002   0.010   0.068   0.021     0.2     1.1     0.3     0.8     413    0.02    0.41    0.74    0.84     0.0     0.0     0.0     0.0     0.1     0.1     0.2     0.1     0.0     0.1     36.     61.     48.     45.     50.     45.     57.     14.     14.     23.     0.0     0.1     0.0     0.0     0.1     0.0     0.1     0.0     0.0     0.0     0.0     0.0     0.0     0.0     0.1     0.1     0.2     0.1     0.0     0.1     0.1     0.1     0.1     0.1     0.1     0.1     0.2     0.0     0.0     0.1
 2023 154    45    0.00    0.01    0.00    0.07     9.9   0.002   0.010   0.069   0.022     0.2     1.1     0.3     0.7     421    0.02    0.42    0.70    0.87     0.0     0.0     0.0     0.0     0.0     0.1     0.2     0.1     0.0     0.1     34.     66.     47.     45.     50.     46.     58.     15.     14.     24.     0.0     0.1     0.0     0.0     0.1     0.0     0.1     0.0     0.0     0.0     0.0     0.0     0.0     0.0     0.0     0.1     0.2     0.1     0.0     0.1     0.1     0.1     0.1     0.1     0.1     0.1     0.2     0.0     0.0     0.1
 2023 155    46    0.00    0.01    0.00    0.07    10.3   0.002   0.010   0.071   0.023     0.0     0.2     0.1     2.4     339    0.05    0.34    2.38    0.57     0.0     0.0     0.6     0.4     0.2     0.5     0.3     0.2     0.1     0.1     17.     36.     32.     36.     46.     43.     57.     14.     14.     23.     0.0     0.0     0.0     0.0     0.0     0.1     0.1     0.0     0.0     0.0     0.0     0.0     0.6     0.4     0.2     0.4     0.3     0.2     0.1     0.1     0.0     0.0     0.0     0.0     0.1     0.1     0.2     0.0     0.0     0.1
 2023 156    47    0.00    0.01    0.00    0.07    10.7   0.002   0.011   0.072   0.023     0.1     0.7     0.2     1.0     379    0.02    0.38    1.01    0.67     0.0     0.0     0.2     0.1     0.1     0.2     0.1     0.1     0.0     0.1     26.     51.     41.     41.     47.     43.     56.     14.     14.     23.     0.0     0.1     0.0     0.0     0.0     0.0     0.1     0.0     0.0     0.0     0.0     0.0     0.2     0.1     0.1     0.2     0.1     0.1     0.0     0.1     0.0     0.0     0.0     0.0     0.1     0.1     0.2     0.0     0.0     0.1
 2023 157    48    0.00    0.02    0.00    0.08    11.0   0.002   0.011   0.073   0.024     0.2     0.8     0.2     1.3     387    0.03    0.39    1.32    0.69     0.0     0.0     0.2     0.2     0.1     0.3     0.2     0.1     0.1     0.1     28.     56.     42.     40.     47.     43.     57.     14.     14.     24.     0.0     0.1     0.0     0.0     0.0     0.1     0.1     0.0     0.0     0.0     0.0     0.0     0.2     0.2     0.1     0.3     0.2     0.1     0.1     0.1     0.0     0.1     0.0     0.0     0.1     0.1     0.2     0.0     0.0     0.1
 2023 158    49    0.00    0.02    0.00    0.08    11.4   0.002   0.011   0.074   0.025     0.2     1.1     0.3     0.8     401    0.02    0.40    0.75    0.80     0.0     0.0     0.1     0.0     0.0     0.1     0.2     0.0     0.1     0.1     31.     59.     45.     43.     48.     44.     58.     15.     14.     24.     0.0     0.1     0.0     0.0     0.0     0.0     0.1     0.0     0.0     0.0     0.0     0.0     0.1     0.0     0.0     0.1     0.2     0.0     0.1     0.1     0.0     0.1     0.1     0.1     0.1     0.1     0.2     0.0     0.0     0.1