*GROWTH ASPECTS OUTPUT FILE

*DSSAT Cropping System Model Ver. 4.8.2.000 -release  APR 04, 2025 15:50:50

*RUN   1        : farm_23                   MZCER048 UNLI2309    1
 MODEL          : MZCER048 - Maize
 EXPERIMENT     : UNLI2309 MZ PIO1366
 DATA PATH      :
 TREATMENT  1   : farm_23                   MZCER048
  
!                                                                                                                                                                                                                                      Root Dens. (cm/cm3) by soil depth (cm):
!                                                                                                                                                                                                                                      0-5    5-15   15-23   23-31   31-46   46-61   61-91  91-106 106-122 122-183
@YEAR DOY   DAS   DAP   L#SD   GSTD   LAID   LWAD   SWAD   GWAD   RWAD   VWAD   CWAD   G#AD   GWGD   HIAD   PWAD   P#AD   WSPD   WSGD   NSTD   EWSD  PST1A  PST2A   KSTD   LN%D   SH%D   HIPD   PWDD   PWTD     SLAD   CHTD   CWID   RDPD    RL1D    RL2D    RL3D    RL4D    RL5D    RL6D    RL7D    RL8D    RL9D   RL10D   CDAD   LDAD   SDAD   SNW0C   SNW1C  DTTD
 2023 122    13     0    0.0      0   0.00      0      0      0      0      0      0      0    0.0  0.000      0      0  0.000  0.000  0.000  0.000  0.000  0.000  0.000   0.00   0.00   0.00      0      0      0.0   0.00   0.00   0.05    0.00    0.00    0.00    0.00    0.00    0.00    0.00    0.00    0.00    0.00      0      0      0       0       0  4.52
 2023 123    14     1    0.0      0   0.00      0      0      0      0      0      0      0    0.0  0.000      0      0  0.000  0.000  0.000  0.000  0.000  0.000  0.000   0.00   0.00   0.00      0      0      0.0   0.00   0.00   0.06    0.00    0.00    0.00    0.00    0.00    0.00    0.00    0.00    0.00    0.00      0      0      0       0       0  8.33
 2023 124    15     2    0.0      0   0.00      0      0      0      0      0      0      0    0.0  0.000      0      0  0.000  0.000  0.000  0.000  0.000  0.000  0.000   0.00   0.00   0.00      0      0      0.0   0.00   0.00   0.08    0.00    0.00    0.00    0.00    0.00    0.00    0.00    0.00    0.00    0.00      0      0      0       0       0 12.46
 2023 125    16     3    0.0      0   0.00      0      0      0      0      0      0      0    0.0  0.000      0      0  0.000  0.000  0.000  0.000  0.000  0.000  0.000   0.00   0.00   0.00      0      0      0.0   0.00   0.00   0.10    0.00    0.00    0.00    0.00    0.00    0.00    0.00    0.00    0.00    0.00      0      0      0       0       0 11.75
 2023 126    17     4    0.0      0   0.00      0      0      0      0      0      0      0    0.0  0.000      0      0  0.000  0.000  0.000  0.000  0.000  0.000  0.000   0.00   0.00   0.00      0      0      0.0   0.00   0.00   0.11    0.00    0.00    0.00    0.00    0.00    0.00    0.00    0.00    0.00    0.00      0      0      0       0       0  8.87
 2023 127    18     5    0.0      0   0.00      0      0      0      0      0      0      0    0.0  0.000      0      0  0.000  0.000  0.000  0.000  0.000  0.000  0.000   0.00   0.00   0.00      0      0      0.0   0.00   0.00   0.13    0.00    0.00    0.00    0.00    0.00    0.00    0.00    0.00    0.00    0.00      0      0      0       0       0  9.82
 2023 128    19     6    0.0      0   0.00      0      0      0      0      0      0      0    0.0  0.000      0      0  0.000  0.000  0.000  0.000  0.000  0.000  0.000   0.00   0.00   0.00      0      0      0.0   0.00   0.00   0.14    0.00    0.00    0.00    0.00    0.00    0.00    0.00    0.00    0.00    0.00      0      0      0       0       0 10.40
 2023 129    20     7    0.0      0   0.00      0      0      0      0      0      0      0    0.0  0.000      0      0  0.000  0.000  0.000  0.000  0.000  0.000  0.000   0.00   0.00   0.00      0      0      0.0   0.00   0.00   0.16    0.00    0.00    0.00    0.00    0.00    0.00    0.00    0.00    0.00    0.00      0      0      0       0       0 10.58
 2023 130    21     8    0.0      0   0.00      0      0      0      0      0      0      0    0.0  0.000      0      0  0.000  0.000  0.000  0.000  0.000  0.000  0.000   0.00   0.00   0.00      0      0      0.0   0.00   0.00   0.17    0.00    0.00    0.00    0.00    0.00    0.00    0.00    0.00    0.00    0.00      0      0      0       0       0  9.17
 2023 131    22     9    1.0      1   0.00     16     16      0     16     32     32      0    0.0  0.000      0      0  0.000  0.000  0.012  0.000  0.000  0.000  0.000   4.40   0.00   0.00      0      0     15.5   0.00   0.00   0.18    0.32    0.16    0.05    0.00    0.00    0.00    0.00    0.00    0.00    0.00      0      0      0       0       0  9.72
 2023 132    23    10    2.0      1   0.00     16     16      0     16     32     32      0    0.0  0.000      0      0  0.000  0.000  0.015  0.000  0.000  0.000  0.000   4.40   0.00   0.00      0      0     23.4   0.00   0.00   0.19    0.32    0.16    0.05    0.00    0.00    0.00    0.00    0.00    0.00    0.00      0      0      0       0       0  6.82
 2023 133    24    11    2.0      1   0.01     16     16      0     17     32     32      0    0.0  0.000      0      0  0.000  0.000  0.012  0.000  0.000  0.000  0.000   4.40   0.00   0.00      0      0     35.7   0.00   0.00   0.20    0.32    0.17    0.06    0.00    0.00    0.00    0.00    0.00    0.00    0.00      0      0      0       0       0  9.47
 2023 134    25    12    2.0      1   0.01     16     16      0     17     32     32      0    0.0  0.000      0      0  0.000  0.000  0.010  0.000  0.000  0.000  0.000   4.40   0.00   0.00      0      0     42.3   0.00   0.00   0.20    0.32    0.17    0.06    0.00    0.00    0.00    0.00    0.00    0.00    0.00      0      0      0       0       0  4.95
 2023 135    26    13    2.0      1   0.01     16     16      0     17     32     32      0    0.0  0.000      0      0  0.000  0.000  0.009  0.000  0.000  0.000  0.000   4.40   0.00   0.00      0      0     44.8   0.00   0.00   0.20    0.32    0.17    0.06    0.00    0.00    0.00    0.00    0.00    0.00    0.00      0      0      0       0       0  1.85
 2023 136    27    14    2.0      1   0.01     16     16      0     18     32     32      0    0.0  0.000      0      0  0.000  0.000  0.006  0.000  0.000  0.000  0.000   4.40   0.00   0.00      0      0     56.2   0.00   0.00   0.21    0.33    0.17    0.06    0.00    0.00    0.00    0.00    0.00    0.00    0.00      0      0      0       0       0  7.84
 2023 137    28    15    2.0      1   0.01     16     16      0     19     32     32      0    0.0  0.000      0      0  0.000  0.000  0.002  0.000  0.000  0.000  0.000   4.40   0.00   0.00      0      0     71.5   0.00   0.00   0.22    0.34    0.18    0.07    0.00    0.00    0.00    0.00    0.00    0.00    0.00      0      0      0       0       0  9.68
 2023 138    29    16    3.0      1   0.01     16     16      0     20     32     32      0    0.0  0.000      0      0  0.000  0.000  0.000  0.000  0.000  0.000  0.000   4.40   0.00   0.00      0      0     86.2   0.01   0.00   0.23    0.35    0.19    0.08    0.00    0.00    0.00    0.00    0.00    0.00    0.00      0      0      0       0       0  8.79
 2023 139    30    17    3.0      1   0.02     16     16      0     22     32     32      0    0.0  0.000      0      0  0.000  0.000  0.000  0.000  0.000  0.000  0.000   4.40   0.00   0.00      0      0     94.2   0.01   0.00   0.24    0.36    0.21    0.10    0.00    0.00    0.00    0.00    0.00    0.00    0.00      0      0      0       0       0  5.06
 2023 140    31    18    3.0      1   0.01     16     16      0     24     32     32      0    0.0  0.000      0      0  0.000  0.000  0.000  0.000  0.000  0.000  0.000   4.40   0.00   0.00      0      0     89.7   0.01   0.00   0.24    0.38    0.22    0.11    0.00    0.00    0.00    0.00    0.00    0.00    0.00      0      0      0       0       0  6.55
 2023 141    32    19    3.0      1   0.02     16     16      0     26     32     32      0    0.0  0.000      0      0  0.000  0.000  0.000  0.000  0.000  0.000  0.000   4.40   0.00   0.00      0      0    110.0   0.01   0.00   0.25    0.39    0.24    0.13    0.01    0.00    0.00    0.00    0.00    0.00    0.00      0      0      0       0       0 10.76
 2023 142    33    20    4.0      1   0.03     16     16      0     28     32     32      0    0.0  0.000      0      0  0.000  0.000  0.000  0.000  0.000  0.000  0.000   4.40   0.00   0.00      0      0    183.4   0.01   0.00   0.27    0.41    0.25    0.14    0.02    0.00    0.00    0.00    0.00    0.00    0.00      0      0      0       0       0 12.19
 2023 143    34    21    4.0      1   0.04     16     16      0     32     32     32      0    0.0  0.000      0      0  0.000  0.000  0.000  0.000  0.000  0.000  0.000   4.40   0.00   0.00      0      0    261.3   0.02   0.00   0.28    0.43    0.28    0.17    0.03    0.00    0.00    0.00    0.00    0.00    0.00      0      0      0       0       0 11.59
 2023 144    35    22    4.0      1   0.06     18     16      0     36     34     34      0    0.0  0.000      0      0  0.000  0.000  0.000  0.000  0.000  0.000  0.000   4.04   0.00   0.00      0      0    325.5   0.02   0.00   0.29    0.46    0.31    0.20    0.05    0.00    0.00    0.00    0.00    0.00    0.00      0      0      0       0       0 12.24
 2023 145    36    23    4.0      1   0.07     23     16      0     40     39     39      0    0.0  0.000      0      0  0.000  0.000  0.000  0.000  0.000  0.000  0.000   3.58   0.00   0.00      0      0    311.0   0.03   0.00   0.30    0.48    0.34    0.23    0.08    0.00    0.00    0.00    0.00    0.00    0.00      0      0      0       0       0 11.18
 2023 146    37    24    5.0      1   0.09     29     16      0     41     45     45      0    0.0  0.000      0      0  0.000  0.000  0.000  0.000  0.000  0.000  0.000   3.64   0.00   0.00      0      0    299.9   0.04   0.00   0.31    0.48    0.34    0.23    0.08    0.00    0.00    0.00    0.00    0.00    0.00      0      0      0       0       1  9.77
 2023 147    38    25    5.0      1   0.10     36     16      0     48     52     52      0    0.0  0.000      0      0  0.000  0.000  0.000  0.000  0.000  0.000  0.000   3.48   0.00   0.00      0      0    287.8   0.04   0.00   0.32    0.52    0.38    0.27    0.15    0.00    0.00    0.00    0.00    0.00    0.00      0      0      0       0       1 11.86
 2023 148    39    26    5.0      1   0.12     44     16      0     56     60     60      0    0.0  0.000      0      0  0.000  0.000  0.001  0.000  0.000  0.000  0.000   3.52   0.00   0.00      0      0    277.8   0.05   0.00   0.33    0.56    0.42    0.31    0.20    0.01    0.00    0.00    0.00    0.00    0.00      0      0      0       0       1 11.05
 2023 149    40    27    5.0      1   0.15     56     16      0     66     72     72      0    0.0  0.000      0      0  0.000  0.000  0.000  0.000  0.000  0.000  0.000   3.27   0.00   0.00      0      0    266.3   0.06   0.00   0.35    0.62    0.48    0.37    0.25    0.02    0.00    0.00    0.00    0.00    0.00      0      0      0       0       1 14.13
 2023 150    41    28    6.0      1   0.17     68     16      0     81     84     84      0    0.0  0.000      0      0  0.000  0.000  0.015  0.000  0.000  0.000  0.000   3.05   0.00   0.00      0      0    255.7   0.07   0.00   0.36    0.70    0.56    0.45    0.34    0.05    0.00    0.00    0.00    0.00    0.00      0      0      0       0       2 13.63
 2023 151    42    29    6.0      1   0.20     82     16      0     99     99     99      0    0.0  0.000      0      0  0.000  0.000  0.054  0.000  0.000  0.000  0.000   2.83   0.00   0.00      0      0    245.2   0.09   0.00   0.39    0.79    0.64    0.54    0.42    0.10    0.00    0.00    0.00    0.00    0.00      0      0      0       0       2 13.85
 2023 152    43    30    6.0      1   0.23     96     16      0    107    113    113      0    0.0  0.000      0      0  0.000  0.000  0.086  0.000  0.000  0.000  0.000   2.81   0.00   0.00      0      0    235.7   0.10   0.00   0.41    0.83    0.68    0.58    0.46    0.13    0.00    0.00    0.00    0.00    0.00      0      0      0       0       2 12.15
 2023 153    44    31    6.0      2   0.25    101     16      0    121    117    117      0    0.0  0.000      0      0  0.000  0.000  0.097  0.000  0.000  0.000  0.000   2.96   0.00   0.00      0      0    247.3   0.11   0.00   0.44    0.89    0.74    0.64    0.53    0.18    0.00    0.00    0.00    0.00    0.00      0      0      0       0       3 11.83
 2023 154    45    32    7.0      2   0.27    112     16      0    132    128    128      0    0.0  0.000      0      0  0.000  0.000  0.114  0.000  0.000  0.000  0.000   2.85   0.00   0.00      0      0    239.5   0.11   0.00   0.46    0.93    0.79    0.69    0.57    0.23    0.00    0.00    0.00    0.00    0.00      0      0      0       0       4 10.55
 2023 155    46    33    7.0      2   0.30    128     16      0    161    144    144      0    0.0  0.000      0      0  0.000  0.000  0.103  0.000  0.000  0.000  0.000   2.56   0.00   0.00      0      0    231.7   0.13   0.00   0.48    1.05    0.90    0.80    0.69    0.36    0.00    0.00    0.00    0.00    0.00      0      0      0       0       4 12.68
 2023 156    47    34    7.0      2   0.32    145     16      0    188    161    161      0    0.0  0.000      0      0  0.000  0.000  0.134  0.000  0.000  0.000  0.000   2.34   0.00   0.00      0      0    223.4   0.14   0.00   0.51    1.15    1.00    0.90    0.79    0.47    0.04    0.00    0.00    0.00    0.00      0      0      0       0       5 14.35
 2023 157    48    35    8.0      2   0.35    161     16      0    218    178    178      0    0.0  0.000      0      0  0.000  0.000  0.163  0.000  0.000  0.000  0.000   2.27   0.00   0.00      0      0    215.6   0.15   0.00   0.54    1.25    1.11    1.01    0.90    0.58    0.09    0.00    0.00    0.00    0.00      0      0      0       0       6 13.77
 2023 158    49    36    8.0      2   0.37    179     16      0    250    196    196      0    0.0  0.000      0      0  0.000  0.000  0.177  0.000  0.000  0.000  0.000   2.27   0.00   0.00      0      0    207.9   0.16   0.00   0.57    1.36    1.22    1.12    1.01    0.69    0.17    0.00    0.00    0.00    0.00      0      0      0       0       7 14.60
 2023 159    50    37    8.0      2   0.40    201     16      0    284    218    218      0    0.0  0.000      0      0  0.000  0.000  0.172  0.000  0.000  0.000  0.000   2.23   0.00   0.00      0      0    200.7   0.17   0.00   0.60    1.47    1.33    1.23    1.12    0.80    0.28    0.00    0.00    0.00    0.00      0      0      0       0       8 15.82
 2023 160    51    38    9.0      3   0.43    226     16      0    309    242    242      0    0.0  0.000      0      0  0.000  0.000  0.169  0.000  0.000  0.000  0.000   2.10   0.00   0.00      0      0    192.1   0.18   0.00   0.63    1.54    1.41    1.30    1.20    0.88    0.38    0.00    0.00    0.00    0.00      0      0      0       0      10 16.02
 2023 161    52    39    9.0      3   0.46    248     16      0    339    264    264      0    0.0  0.000      0      0  0.000  0.000  0.186  0.000  0.000  0.000  0.000   2.00   0.00   0.00      0      0    186.0   0.20   0.00   0.66    1.63    1.49    1.39    1.28    0.97    0.47    0.01    0.00    0.00    0.00      0      0      0       0      11 13.74
 2023 162    53    40    9.0      3   0.47    263     17      0    371    279    279      0    0.0  0.000      0      0  0.000  0.000  0.220  0.000  0.000  0.000  0.000   2.02   0.00   0.00      0      0    180.3   0.20   0.00   0.68    1.71    1.58    1.48    1.37    1.06    0.56    0.04    0.00    0.00    0.00      0      0      0       0      13 10.00
 2023 163    54    41    9.0      3   0.48    275     17      0    409    292    292      0    0.0  0.000      0      0  0.000  0.000  0.233  0.000  0.000  0.000  0.000   2.11   0.00   0.00      0      0    175.0   0.20   0.00   0.70    1.82    1.68    1.58    1.48    1.16    0.67    0.07    0.00    0.00    0.00      0      0      0       0      15  7.84
 2023 164    55    42    9.0      3   0.50    291     17      0    455    309    309      0    0.0  0.000      0      0  0.000  0.000  0.198  0.000  0.000  0.000  0.000   2.20   0.00   0.00      0      0    170.2   0.21   0.00   0.71    1.94    1.81    1.71    1.60    1.29    0.80    0.11    0.00    0.00    0.00      0      0      0       0      17  9.61
 2023 165    56    43   10.0      3   0.52    315     18      0    497    333    333      0    0.0  0.000      0      0  0.000  0.000  0.176  0.000  0.000  0.000  0.000   2.24   0.00   0.00      0      0    166.0   0.22   0.00   0.74    2.05    1.91    1.82    1.71    1.40    0.91    0.16    0.00    0.00    0.00      0      0      0       0      19 11.41
 2023 166    57    44   10.0      3   0.57    350     20      0    532    370    370      0    0.0  0.000      0      0  0.000  0.000  0.157  0.000  0.000  0.000  0.000   2.17   0.00   0.00      0      0    162.3   0.24   0.00   0.77    2.13    2.00    1.90    1.80    1.49    1.00    0.21    0.00    0.00    0.00      0      0      0       0      22 14.88
 2023 167    58    45   10.0      3   0.60    381     22      0    564    403    403      0    0.0  0.000      0      0  0.000  0.000  0.152  0.000  0.000  0.000  0.000   2.04   0.00   0.00      0      0    158.8   0.26   0.00   0.79    2.21    2.08    1.98    1.87    1.57    1.08    0.26    0.00    0.00    0.00      0      0      0       0      24 11.79
 2023 168    59    46   10.0      3   0.64    410     25      0    604    435    435      0    0.0  0.000      0      0  0.000  0.000  0.180  0.000  0.000  0.000  0.000   1.93   0.00   0.00      0      0    155.1   0.27   0.00   0.81    2.30    2.17    2.07    1.97    1.66    1.18    0.33    0.00    0.00    0.00      0      0      0       0      27 11.82
 2023 169    60    47   11.0      3   0.67    447     29      0    652    476    476      0    0.0  0.000      0      0  0.000  0.000  0.197  0.000  0.000  0.000  0.000   1.80   0.00   0.00      0      0    151.1   0.29   0.00   0.84    2.41    2.28    2.18    2.07    1.77    1.29    0.42    0.00    0.00    0.00      0      0      0       0      30 15.10
 2023 170    61    48   11.0      3   0.71    483     35      0    702    518    518      0    0.0  0.000      0      0  0.000  0.000  0.233  0.000  0.000  0.000  0.000   1.70   0.00   0.00      0      0    147.1   0.30   0.00   0.88    2.51    2.38    2.29    2.18    1.88    1.40    0.52    0.00    0.00    0.00      0      0      0       0      33 15.15
 2023 171    62    49   11.0      3   0.75    522     42      0    705    564    564      0    0.0  0.000      0      0  0.000  0.000  0.282  0.000  0.000  0.000  0.000   1.60   0.00   0.00      0      0    143.0   0.32   0.00   0.91    2.51    2.38    2.29    2.19    1.89    1.41    0.53    0.00    0.00    0.00      0      0      0       0      37 16.20
 2023 172    63    50   12.0      3   0.78    563     51      0    725    614    614      0    0.0  0.000      0      0  0.000  0.000  0.322  0.000  0.000  0.000  0.000   1.51   0.00   0.00      0      0    138.9   0.33   0.00   0.94    2.55    2.42    2.33    2.22    1.92    1.45    0.58    0.00    0.00    0.00      0      0      0       0      41 15.05
 2023 173    64    51   12.0      3   0.81    598     60      0    742    658    658      0    0.0  0.000      0      0  0.000  0.000  0.360  0.000  0.000  0.000  0.000   1.46   0.00   0.00      0      0    134.8   0.34   0.00   0.95    2.58    2.45    2.36    2.26    1.96    1.49    0.63    0.00    0.00    0.00      0      0      0       0      44 13.65
 2023 174    65    52   12.0      3   0.82    631     71      0    768    702    702      0    0.0  0.000      0      0  0.000  0.000  0.392  0.000  0.000  0.000  0.000   1.40   0.00   0.00      0      0    130.7   0.35   0.00   0.96    2.63    2.50    2.41    2.31    2.01    1.54    0.69    0.00    0.00    0.00      0      0      0       0      48 14.10
 2023 175    66    53   13.0      3   0.84    660     81      0    812    741    741      0    0.0  0.000      0      0  0.000  0.000  0.416  0.000  0.000  0.000  0.000   1.36   0.00   0.00      0      0    126.7   0.35   0.00   0.97    2.72    2.59    2.50    2.40    2.10    1.64    0.78    0.01    0.00    0.00      0      0      0       0      52 13.00
 2023 176    67    54   13.0      3   0.84    685     90      0    856    775    775      0    0.0  0.000      0      0  0.000  0.000  0.438  0.000  0.000  0.000  0.000   1.33   0.00   0.00      0      0    122.7   0.36   0.00   0.97    2.81    2.68    2.59    2.49    2.20    1.73    0.88    0.01    0.00    0.00      0      0      0       0      56 11.30
 2023 177    68    55   13.0      3   0.84    707    100      0    897    807    807      0    0.0  0.000      0      0  0.000  0.000  0.455  0.000  0.000  0.000  0.000   1.30   0.00   0.00      0      0    118.9   0.36   0.00   0.98    2.89    2.76    2.67    2.57    2.28    1.82    0.97    0.02    0.00    0.00      0      0      0       0      60 11.10
 2023 178    69    56   13.0      3   0.85    739    115      0    918    855    855      0    0.0  0.000      0      0  0.000  0.000  0.459  0.000  0.000  0.000  0.000   1.26   0.00   0.00      0      0    115.4   0.36   0.00   0.99    2.93    2.80    2.71    2.61    2.32    1.86    1.02    0.02    0.00    0.00      0      0      0       0      65 15.45
 2023 179    70    57   14.0      3   0.87    778    137      0    942    914    914      0    0.0  0.000      0      0  0.000  0.000  0.456  0.000  0.000  0.000  0.000   1.21   0.00   0.00      0      0    112.3   0.37   0.00   1.00    2.97    2.85    2.76    2.66    2.37    1.91    1.08    0.02    0.00    0.00      0      0      0       0      69 18.40
 2023 180    71    58   14.0      3   0.88    809    156      0    973    965    965      0    0.0  0.000      0      0  0.000  0.000  0.467  0.000  0.000  0.000  0.000   1.18   0.00   0.00      0      0    109.1   0.37   0.00   1.02    3.04    2.91    2.82    2.72    2.44    1.98    1.15    0.03    0.00    0.00      0      0      0       0      74 15.20
 2023 181    72    59   14.0      3   0.88    831    172      0    978   1003   1003      0    0.0  0.000      0      0  0.000  0.000  0.487  0.000  0.000  0.000  0.000   1.16   0.00   0.00      0      0    105.7   0.37   0.00   1.02    3.04    2.92    2.83    2.73    2.44    1.99    1.16    0.03    0.00    0.00      0      0      0       0      79 11.75
 2023 182    73    60   15.0      3   0.87    853    188      0    997   1041   1041      0    0.0  0.000      0      0  0.000  0.000  0.496  0.000  0.000  0.000  0.000   1.15   0.00   0.00      0      0    102.5   0.37   0.00   1.03    3.08    2.95    2.86    2.76    2.48    2.03    1.21    0.04    0.00    0.00      0      0      0       0      84 11.50
 2023 183    74    61   15.0      3   0.88    879    209      0   1026   1088   1088      0    0.0  0.000      0      0  0.000  0.000  0.496  0.000  0.000  0.000  0.000   1.12   0.00   0.00      0      0     99.5   0.37   0.00   1.04    3.13    3.01    2.92    2.82    2.54    2.09    1.27    0.04    0.00    0.00      0      0      0       0      89 14.00
 2023 184    75    62   15.0      3   0.91    934    260      0   1027   1195   1195      0    0.0  0.000      0      0  0.000  0.000  0.494  0.000  0.000  0.000  0.000   1.05   0.00   0.00      0      0     97.6   0.39   0.00   1.05    3.13    3.01    2.92    2.82    2.54    2.09    1.28    0.04    0.00    0.00      0      0      0       0      94 17.00
 2023 185    76    63   15.0      3   0.92    970    312      0   1027   1282   1282      0    0.0  0.000      0      0  0.000  0.000  0.496  0.000  0.000  0.000  0.000   1.00   0.00   0.00      0      0     95.2   0.39   0.00   1.06    3.12    3.00    2.91    2.82    2.54    2.09    1.28    0.04    0.00    0.00      0      0      0       0      99 13.60
 2023 186    77    64   16.0      3   0.90    981    330      0   1023   1311   1312      0    0.0  0.000      0      0  0.000  0.000  0.532  0.000  0.000  0.000  0.000   1.00   0.00   0.00      0      0     91.9   0.39   0.00   1.07    3.11    2.99    2.90    2.80    2.53    2.09    1.28    0.04    0.00    0.00      0      0      0       0     104  7.60
 2023 187    78    65   16.0      3   0.88    992    350      0   1020   1342   1343      0    0.0  0.000      1      0  0.000  0.000  0.554  0.000  0.000  0.000  0.000   1.00   0.00   0.00      0      1     88.6   0.39   0.00   1.07    3.10    2.98    2.89    2.79    2.52    2.08    1.28    0.04    0.00    0.00      0      0      0       0     109  7.30
 2023 188    79    66   16.0      3   0.87   1013    391      0   1029   1404   1406      0    0.0  0.000      2      0  0.000  0.000  0.545  0.000  0.000  0.000  0.000   0.98   0.00   0.00      0      2     85.9   0.39   0.00   1.08    3.11    2.99    2.91    2.81    2.53    2.10    1.30    0.05    0.00    0.00      0      0      0       0     114 12.90
 2023 189    80    67   16.0      3   0.85   1023    414      0   1031   1437   1441      0    0.0  0.000      4      0  0.000  0.000  0.541  0.000  0.000  0.000  0.000   0.97   0.00   0.00      0      4     83.0   0.39   0.00   1.09    3.11    2.99    2.91    2.81    2.54    2.10    1.31    0.05    0.00    0.00      0      0      0       0     119  7.15
 2023 190    81    68   16.0      3   0.83   1038    447      0   1051   1486   1492      0    0.0  0.000      6      0  0.000  0.000  0.549  0.000  0.000  0.000  0.000   0.95   0.00   0.00      0      6     80.3   0.39   0.00   1.09    3.15    3.03    2.94    2.85    2.58    2.14    1.35    0.05    0.00    0.00      0      0      0       0     124 11.05
 2023 191    82    69   17.0      3   0.83   1059    500      0   1055   1559   1569      0    0.0  0.000     10      0  0.000  0.000  0.545  0.000  0.000  0.000  0.000   0.92   0.00   0.01      0     10     78.0   0.39   0.00   1.11    3.15    3.03    2.95    2.85    2.58    2.15    1.37    0.06    0.00    0.00      0      0      0       0     130 16.90
 2023 192    83    70   17.0      3   0.82   1077    549      0   1059   1626   1640      0    0.0  0.000     15      0  0.000  0.000  0.543  0.000  0.000  0.000  0.000   0.90   0.00   0.01      0     15     75.8   0.39   0.00   1.12    3.15    3.04    2.95    2.86    2.59    2.16    1.38    0.06    0.00    0.00      0      0      0       0     135 15.85
 2023 193    84    71   17.0      3   0.80   1094    597      0   1065   1692   1713      0    0.0  0.000     21      0  0.000  0.000  0.548  0.000  0.000  0.000  0.000   0.88   0.00   0.01      0     21     73.6   0.39   0.00   1.13    3.16    3.04    2.96    2.86    2.60    2.17    1.39    0.06    0.00    0.00      0      0      0       0     140 16.70
 2023 194    85    72   18.0      3   0.79   1107    636      0   1063   1743   1769      0    0.0  0.000     26      0  0.000  0.000  0.549  0.000  0.000  0.000  0.000   0.88   0.00   0.01      0     26     71.2   0.39   0.00   1.14    3.15    3.03    2.95    2.86    2.59    2.17    1.39    0.06    0.00    0.00      0      0      0       0     146 14.75
 2023 195    86    73   18.0      3   0.77   1120    672      0   1062   1792   1826      0    0.0  0.000     34      0  0.000  0.000  0.548  0.000  0.000  0.000  0.000   0.87   0.00   0.02      0     34     69.0   0.39   0.00   1.15    3.14    3.03    2.95    2.85    2.59    2.17    1.40    0.06    0.00    0.00      0      0      0       0     151 13.35
 2023 196    87    74   18.0      3   0.76   1132    706      0   1068   1838   1883      0    0.0  0.000     45      0  0.000  0.000  0.542  0.000  0.000  0.000  0.000   0.86   0.00   0.02      0     45     66.9   0.39   0.00   1.16    3.15    3.04    2.96    2.86    2.60    2.18    1.41    0.06    0.00    0.00      0      0      0       0     156 13.45
 2023 197    88    75   19.0      3   0.74   1146    746      0   1067   1892   1951      0    0.0  0.000     59      0  0.000  0.000  0.539  0.000  0.000  0.000  0.000   0.85   0.00   0.03      0     59     65.0   0.39   0.00   1.17    3.14    3.03    2.95    2.85    2.59    2.18    1.41    0.06    0.00    0.00      0      0      0       0     162 16.05
 2023 198    89    76   19.0      3   0.73   1159    776      0   1073   1934   2013      0    0.0  0.000     79      0  0.000  0.000  0.538  0.000  0.000  0.000  0.000   0.85   0.00   0.04      0     79     63.1   0.39   0.00   1.18    3.15    3.04    2.96    2.86    2.61    2.19    1.43    0.06    0.00    0.00      0      0      0       0     167 14.30
 2023 199    90    77   19.0      3   0.72   1170    804      0   1071   1973   2066      0    0.0  0.000     93      0  0.000  0.000  0.539  0.000  0.000  0.000  0.000   0.85   0.00   0.04      0     93     61.2   0.39   0.00   1.19    3.14    3.03    2.95    2.85    2.60    2.18    1.43    0.06    0.00    0.00      0      0      0       0     172 14.25
 2023 200    91    78   19.0      3   0.70   1176    823      0   1067   1998   2096      0    0.0  0.000     98      0  0.000  0.000  0.535  0.000  0.000  0.000  0.000   0.86   0.00   0.05      0     98     59.1   0.39   0.00   1.20    3.13    3.02    2.94    2.84    2.59    2.18    1.42    0.06    0.00    0.00      0      0      0       0     178 15.60
 2023 201    92    79   19.0      3   0.68   1182    840      0   1064   2022   2129      0    0.0  0.000    106      0  0.000  0.000  0.531  0.000  0.000  0.000  0.000   0.87   0.00   0.05      0    106     57.2   0.39   0.00   1.21    3.12    3.00    2.93    2.83    2.58    2.17    1.42    0.06    0.00    0.00      0      0      0       0     183 12.15