*Soil Inorganic Nitrogen daily output file

*DSSAT Cropping System Model Ver. 4.8.2.000 -release  APR 04, 2025 15:50:50

*RUN   1        : farm_23                   MZCER048 UNLI2309    1
 MODEL          : MZCER048 - Maize
 EXPERIMENT     : UNLI2309 MZ PIO1366
 DATA PATH      :
 TREATMENT  1   : farm_23                   MZCER048
  
!                                                                                                                                      NO3 (ppm) at soil dep. (cm):                                                    NH4 (ppm) at soil dep. (cm):                                                    Total Inorganic N @dep(ppm):
!                                                                                                                                       0-5    5-15   15-23   23-31   31-46   46-61   61-91  91-106 106-122 122-183     0-5    5-15   15-23   23-31   31-46   46-61   61-91  91-106 106-122 122-183     0-5    5-15   15-23   23-31   31-46   46-61   61-91  91-106 106-122 122-183
@YEAR DOY   DAS  NAPC  NI#M    NIAD    NITD    NHTD   NURTD    NMNC    NITC    NDNC    NIMC    AMLC   NNMNC    NUCM    NLCC    TDNC    NI1D    NI2D    NI3D    NI4D    NI5D    NI6D    NI7D    NI8D    NI9D    NI10    NH1D    NH2D    NH3D    NH4D    NH5D    NH6D    NH7D    NH8D    NH9D    NH10    NT1D    NT2D    NT3D    NT4D    NT5D    NT6D    NT7D    NT8D    NT9D    NT10    
 2023 109     0     0     0    16.7    14.3     2.4     0.0    0.00    0.00    0.00    0.00    0.00    0.00    0.00    0.00    0.00    0.60     0.6     0.6    0.60    0.60    0.60    0.60    0.60    0.60    0.60    0.10    0.10    0.10    0.10    0.10    0.10    0.10    0.10    0.10    0.10    0.70    0.70    0.70    0.70    0.70    0.70    0.70    0.70    0.70    0.70
 2023 110     1     0     0    16.8    14.6     2.2     0.0    0.14    0.29    0.00    0.00    0.00    0.14    0.00    0.00    0.00    0.61     0.6     0.6    0.61    0.61    0.61    0.61    0.61    0.61    0.61    0.11    0.11    0.11    0.10    0.10    0.10    0.09    0.09    0.09    0.09    0.72    0.72    0.72    0.72    0.71    0.71    0.70    0.70    0.70    0.70
 2023 111     2     0     0    17.0    14.9     2.1     0.0    0.26    0.55    0.00    0.00    0.00    0.26    0.00    0.00    0.00    0.63     0.6     0.6    0.62    0.62    0.62    0.62    0.62    0.62    0.62    0.11    0.11    0.11    0.11    0.10    0.09    0.08    0.08    0.08    0.08    0.74    0.74    0.73    0.73    0.72    0.71    0.71    0.70    0.70    0.70
 2023 112     3     0     0    17.0    15.1     2.0     0.0    0.34    0.77    0.00    0.00    0.00    0.34    0.00    0.00    0.00    0.64     0.6     0.6    0.63    0.63    0.63    0.63    0.63    0.63    0.63    0.11    0.11    0.11    0.11    0.09    0.09    0.08    0.07    0.07    0.07    0.75    0.75    0.74    0.74    0.72    0.72    0.71    0.70    0.70    0.70
 2023 113     4     0     0    17.1    15.3     1.8     0.0    0.36    0.95    0.00    0.00    0.00    0.36    0.00    0.00    0.00    0.65     0.6     0.6    0.64    0.64    0.64    0.64    0.64    0.64    0.64    0.11    0.11    0.10    0.10    0.09    0.08    0.07    0.07    0.07    0.07    0.76    0.75    0.75    0.74    0.72    0.72    0.71    0.70    0.70    0.70
 2023 114     5     0     0    17.1    15.4     1.6     0.0    0.36    1.10    0.00    0.00    0.00    0.36    0.00    0.00    0.00    0.66     0.7     0.7    0.65    0.64    0.64    0.65    0.65    0.64    0.64    0.10    0.10    0.10    0.09    0.08    0.08    0.06    0.06    0.06    0.06    0.76    0.75    0.75    0.74    0.72    0.72    0.71    0.70    0.70    0.70
 2023 115     6     0     0    17.1    15.5     1.5     0.0    0.36    1.23    0.00    0.00    0.00    0.36    0.00    0.00    0.00    0.67     0.7     0.7    0.66    0.65    0.65    0.65    0.65    0.65    0.65    0.09    0.09    0.09    0.09    0.07    0.07    0.06    0.05    0.05    0.05    0.76    0.75    0.75    0.74    0.72    0.72    0.71    0.70    0.70    0.70
 2023 116     7     0     0    17.0    15.6     1.4     0.0    0.36    1.35    0.00    0.00    0.00    0.36    0.00    0.00    0.00    0.67     0.7     0.7    0.66    0.65    0.65    0.66    0.65    0.65    0.65    0.09    0.09    0.08    0.08    0.07    0.07    0.05    0.05    0.05    0.05    0.76    0.75    0.75    0.74    0.72    0.72    0.71    0.70    0.70    0.70
 2023 117     8     0     0    17.1    15.8     1.3     0.0    0.37    1.46    0.00    0.00    0.00    0.37    0.00    0.00    0.00    0.68     0.7     0.7    0.67    0.66    0.66    0.66    0.66    0.66    0.66    0.08    0.08    0.08    0.08    0.06    0.06    0.05    0.05    0.05    0.05    0.76    0.75    0.75    0.74    0.72    0.72    0.71    0.70    0.70    0.70
 2023 118     9     0     0    17.1    15.9     1.2     0.0    0.41    1.59    0.00    0.00    0.00    0.41    0.00    0.00    0.00    0.69     0.7     0.7    0.68    0.67    0.66    0.67    0.66    0.66    0.66    0.08    0.08    0.08    0.08    0.06    0.06    0.04    0.04    0.04    0.04    0.78    0.76    0.76    0.75    0.73    0.72    0.71    0.70    0.70    0.70
 2023 119    10     0     0    17.2    16.0     1.2     0.0    0.48    1.71    0.00    0.00    0.00    0.48    0.00    0.00    0.00    0.70     0.7     0.7    0.68    0.67    0.67    0.67    0.67    0.67    0.67    0.09    0.08    0.08    0.08    0.06    0.06    0.04    0.04    0.04    0.04    0.79    0.77    0.77    0.76    0.73    0.73    0.71    0.71    0.70    0.70
 2023 120    11     0     0    17.3    16.1     1.1     0.0    0.56    1.84    0.00    0.00    0.00    0.56    0.00    0.00    0.00    0.71     0.7     0.7    0.69    0.68    0.67    0.68    0.67    0.67    0.67    0.09    0.09    0.08    0.08    0.06    0.06    0.04    0.03    0.03    0.03    0.81    0.79    0.78    0.77    0.74    0.73    0.72    0.71    0.71    0.70
 2023 121    12     0     0    17.3    16.3     1.1     0.0    0.65    1.96    0.00    0.00    0.00    0.65    0.00    0.00    0.00    0.73     0.7     0.7    0.70    0.68    0.68    0.68    0.68    0.68    0.67    0.10    0.09    0.09    0.08    0.06    0.06    0.04    0.03    0.03    0.03    0.82    0.80    0.79    0.78    0.74    0.74    0.72    0.71    0.71    0.70
 2023 122    13     0     1    17.4    16.4     1.0     0.0    0.71    2.06    0.00    0.00    0.00    0.71    0.00    0.00    0.00    0.74     0.7     0.7    0.71    0.69    0.68    0.69    0.68    0.68    0.68    0.10    0.09    0.09    0.08    0.06    0.06    0.03    0.03    0.03    0.03    0.84    0.81    0.80    0.79    0.75    0.74    0.72    0.71    0.71    0.70
 2023 123    14     0     1    17.4    16.5     1.0     0.0    0.76    2.16    0.00    0.00    0.00    0.76    0.00    0.00    0.00    0.75     0.7     0.7    0.71    0.69    0.69    0.69    0.68    0.68    0.68    0.10    0.09    0.09    0.08    0.06    0.05    0.03    0.03    0.03    0.02    0.85    0.82    0.81    0.80    0.75    0.74    0.72    0.71    0.71    0.70
 2023 124    15     0     1    17.5    16.6     1.0     0.0    0.84    2.27    0.00    0.00    0.00    0.84    0.00    0.00    0.00    0.54     0.8     0.7    0.72    0.70    0.69    0.69    0.69    0.68    0.68    0.10    0.10    0.09    0.08    0.06    0.05    0.03    0.02    0.02    0.02    0.64    0.93    0.83    0.81    0.76    0.75    0.72    0.71    0.71    0.71
 2023 125    16     0     1    17.7    16.7     1.0     0.0    0.97    2.38    0.00    0.00    0.00    0.97    0.00    0.00    0.00    0.32     0.7     0.9    0.86    0.71    0.70    0.70    0.69    0.69    0.68    0.11    0.10    0.10    0.09    0.06    0.05    0.03    0.02    0.02    0.02    0.44    0.85    0.99    0.95    0.77    0.75    0.73    0.71    0.71    0.71
 2023 126    17     0     1    17.8    16.8     1.0     0.0    1.16    2.49    0.00    0.00    0.00    1.16    0.00    0.00    0.00    0.30     0.7     0.9    0.90    0.76    0.71    0.70    0.69    0.69    0.69    0.13    0.12    0.11    0.10    0.06    0.06    0.03    0.02    0.02    0.02    0.43    0.81    0.98    1.00    0.82    0.76    0.74    0.71    0.71    0.71
 2023 127    18     0     1    18.1    16.9     1.1     0.0    1.40    2.64    0.00    0.00    0.00    1.40    0.00    0.00    0.00    0.30     0.7     0.9    0.91    0.81    0.72    0.71    0.70    0.69    0.69    0.15    0.13    0.12    0.11    0.07    0.06    0.04    0.02    0.02    0.02    0.45    0.80    0.98    1.02    0.88    0.78    0.74    0.72    0.72    0.71
 2023 128    19     0     1    18.4    17.1     1.2     0.0    1.68    2.82    0.00    0.00    0.00    1.68    0.00    0.00    0.00    0.32     0.7     0.8    0.89    0.82    0.79    0.71    0.70    0.70    0.69    0.16    0.15    0.14    0.13    0.08    0.07    0.04    0.02    0.02    0.02    0.47    0.82    0.97    1.02    0.89    0.86    0.75    0.72    0.72    0.72
 2023 129    20     0     1    18.7    17.3     1.3     0.0    1.98    3.03    0.00    0.00    0.00    1.98    0.00    0.00    0.00    0.34     0.7     0.8    0.91    0.83    0.81    0.72    0.70    0.70    0.70    0.17    0.16    0.15    0.14    0.08    0.08    0.04    0.03    0.02    0.02    0.51    0.84    0.99    1.05    0.92    0.89    0.77    0.73    0.73    0.72
 2023 130    21     0     1    19.0    17.6     1.4     0.0    2.28    3.26    0.00    0.00    0.00    2.28    0.00    0.00    0.00    0.20     0.6     0.9    0.99    0.87    0.86    0.74    0.71    0.70    0.70    0.17    0.17    0.16    0.15    0.09    0.08    0.05    0.03    0.03    0.02    0.37    0.78    1.04    1.14    0.96    0.95    0.78    0.73    0.73    0.72
 2023 131    22     0     1    19.2    17.7     1.5     0.0    2.57    3.46    0.01    0.00    0.00    2.57    0.00    0.00    0.00    0.12     0.5     0.8    0.96    0.92    0.94    0.81    0.71    0.71    0.70    0.19    0.18    0.18    0.16    0.09    0.09    0.05    0.03    0.03    0.02    0.32    0.66    0.93    1.13    1.01    1.02    0.85    0.74    0.73    0.73
 2023 132    23     0     1    19.5    17.9     1.6     0.0    2.87    3.66    0.01    0.00    0.00    2.87    0.00    0.00    0.00    0.08     0.3     0.6    0.81    0.90    1.00    0.89    0.84    0.71    0.71    0.21    0.20    0.19    0.18    0.10    0.09    0.05    0.03    0.03    0.02    0.29    0.54    0.78    0.99    0.99    1.09    0.94    0.87    0.74    0.73
 2023 133    24     0     1    19.8    18.1     1.7     0.0    3.15    3.86    0.02    0.00    0.00    3.15    0.00    0.00    0.00    0.09     0.3     0.6    0.77    0.83    0.96    0.90    0.91    0.85    0.71    0.23    0.21    0.21    0.19    0.11    0.10    0.05    0.03    0.03    0.02    0.32    0.54    0.76    0.96    0.93    1.06    0.95    0.93    0.88    0.74
 2023 134    25     0     1    20.1    18.4     1.7     0.0    3.44    4.09    0.02    0.00    0.00    3.44    0.00    0.00    0.00    0.12     0.3     0.5    0.73    0.78    0.92    0.89    0.93    0.91    0.78    0.23    0.22    0.21    0.21    0.11    0.10    0.05    0.03    0.03    0.03    0.35    0.55    0.75    0.94    0.89    1.02    0.94    0.96    0.94    0.80
 2023 135    26     0     1    20.4    18.6     1.8     0.0    3.71    4.33    0.03    0.00    0.00    3.71    0.00    0.00    0.00    0.15     0.4     0.5    0.71    0.76    0.89    0.88    0.92    0.93    0.85    0.23    0.22    0.22    0.21    0.11    0.11    0.05    0.03    0.03    0.03    0.38    0.57    0.75    0.92    0.87    1.00    0.93    0.95    0.96    0.87
 2023 136    27     0     1    20.2    18.4     1.7     0.0    3.93    4.57    0.03    0.00    0.00    3.93    0.00    0.39    0.00    0.18     0.4     0.5    0.69    0.73    0.84    0.84    0.86    0.87    0.84    0.22    0.22    0.22    0.21    0.11    0.11    0.05    0.03    0.03    0.02    0.41    0.59    0.75    0.90    0.84    0.95    0.89    0.88    0.90    0.86
 2023 137    28     0     1    20.4    18.6     1.7     0.0    4.14    4.80    0.04    0.00    0.00    4.14    0.00    0.42    0.00    0.21     0.4     0.6    0.70    0.73    0.84    0.84    0.85    0.87    0.85    0.22    0.21    0.22    0.21    0.11    0.11    0.05    0.03    0.03    0.02    0.43    0.61    0.77    0.91    0.84    0.95    0.89    0.88    0.90    0.88
 2023 138    29     0     1    20.3    18.6     1.7     0.0    4.36    5.04    0.04    0.00    0.00    4.36    0.00    0.72    0.00    0.24     0.4     0.6    0.71    0.73    0.84    0.83    0.83    0.85    0.85    0.21    0.21    0.21    0.21    0.11    0.11    0.05    0.03    0.03    0.02    0.46    0.64    0.79    0.92    0.84    0.94    0.88    0.86    0.88    0.87
 2023 139    30     0     1    20.4    18.7     1.7     0.0    4.57    5.28    0.04    0.00    0.00    4.57    0.00    0.79    0.00    0.28     0.5     0.6    0.74    0.75    0.84    0.84    0.82    0.84    0.85    0.21    0.21    0.21    0.21    0.11    0.10    0.05    0.03    0.03    0.02    0.49    0.67    0.81    0.94    0.86    0.95    0.89    0.85    0.87    0.87
 2023 140    31     0     1    20.6    19.0     1.7     0.0    4.78    5.51    0.04    0.00    0.00    4.78    0.00    0.79    0.00    0.31     0.5     0.6    0.76    0.76    0.86    0.85    0.83    0.85    0.85    0.20    0.21    0.21    0.20    0.11    0.10    0.05    0.03    0.03    0.02    0.51    0.69    0.84    0.97    0.87    0.96    0.90    0.85    0.87    0.88
 2023 141    32     0     1    20.9    19.2     1.6     0.0    5.00    5.75    0.04    0.00    0.00    5.00    0.00    0.79    0.00    0.34     0.5     0.7    0.79    0.78    0.87    0.86    0.83    0.85    0.86    0.20    0.20    0.20    0.20    0.11    0.10    0.05    0.03    0.02    0.02    0.54    0.72    0.86    0.99    0.88    0.97    0.91    0.86    0.88    0.88
 2023 142    33     0     1    21.1    19.5     1.6     0.0    5.24    5.99    0.04    0.00    0.00    5.24    0.00    0.79    0.00    0.38     0.5     0.7    0.82    0.79    0.88    0.86    0.83    0.86    0.86    0.20    0.20    0.20    0.20    0.11    0.10    0.05    0.03    0.03    0.02    0.58    0.75    0.89    1.02    0.90    0.99    0.92    0.86    0.88    0.88
 2023 143    34     0     1    21.3    19.7     1.6     0.0    5.50    6.25    0.04    0.00    0.00    5.50    0.00    0.79    0.00    0.42     0.6     0.7    0.85    0.81    0.90    0.87    0.84    0.86    0.86    0.19    0.20    0.20    0.20    0.11    0.10    0.05    0.03    0.03    0.02    0.61    0.78    0.92    1.05    0.92    1.00    0.93    0.86    0.88    0.89
 2023 144    35     0     1    21.6    20.0     1.6     0.0    5.78    6.52    0.04    0.00    0.00    5.78    0.00    0.79    0.00    0.46     0.6     0.7    0.88    0.83    0.91    0.88    0.84    0.86    0.87    0.19    0.20    0.20    0.20    0.11    0.10    0.05    0.03    0.03    0.02    0.65    0.81    0.95    1.08    0.93    1.02    0.94    0.87    0.89    0.89
 2023 145    36     0     1    21.9    20.2     1.7     0.0    6.10    6.83    0.04    0.00    0.00    6.10    0.03    0.79    0.00    0.50     0.6     0.8    0.91    0.84    0.93    0.89    0.85    0.87    0.87    0.19    0.19    0.20    0.20    0.11    0.10    0.05    0.03    0.03    0.02    0.69    0.83    0.97    1.11    0.95    1.04    0.95    0.88    0.89    0.89
 2023 146    37     0     1    22.1    20.5     1.7     0.0    6.45    7.16    0.04    0.00    0.00    6.45    0.11    0.82    0.00    0.28     0.6     0.8    0.98    0.88    0.96    0.91    0.86    0.88    0.87    0.19    0.19    0.20    0.20    0.11    0.11    0.06    0.03    0.03    0.03    0.47    0.81    1.03    1.18    0.99    1.07    0.96    0.89    0.90    0.90
 2023 147    38     0     1    22.3    20.5     1.7     0.0    6.81    7.44    0.04    0.00    0.00    6.81    0.30    0.85    0.00    0.25     0.5     0.8    0.96    0.90    0.99    0.92    0.88    0.89    0.88    0.21    0.21    0.21    0.20    0.11    0.11    0.06    0.03    0.03    0.03    0.46    0.74    0.96    1.16    1.01    1.10    0.98    0.91    0.92    0.91
 2023 148    39     0     1    22.2    20.4     1.8     0.0    7.16    7.75    0.05    0.00    0.00    7.16    0.65    0.92    0.00    0.14     0.3     0.5    0.79    0.91    1.05    0.96    0.92    0.92    0.90    0.22    0.22    0.22    0.21    0.11    0.11    0.06    0.03    0.03    0.03    0.36    0.56    0.76    1.00    1.03    1.16    1.01    0.95    0.95    0.92
 2023 149    40     0     1    22.1    20.2     1.9     0.0    7.52    8.02    0.06    0.00    0.00    7.52    1.04    1.03    0.00    0.15     0.3     0.4    0.60    0.84    1.03    0.97    0.95    0.95    0.91    0.24    0.23    0.23    0.23    0.12    0.11    0.06    0.03    0.03    0.03    0.39    0.49    0.63    0.83    0.96    1.15    1.03    0.98    0.98    0.94
 2023 150    41     0     1    20.8    18.8     1.9     0.0    7.88    8.33    0.06    0.00    0.00    7.88    1.38    2.34    0.00    0.17     0.3     0.3    0.40    0.71    0.93    0.91    0.90    0.90    0.89    0.25    0.23    0.24    0.24    0.12    0.12    0.06    0.03    0.03    0.03    0.42    0.50    0.52    0.64    0.83    1.04    0.97    0.93    0.93    0.92
 2023 151    42     0     1    20.3    18.3     1.9     0.0    8.26    8.70    0.07    0.00    0.00    8.26    1.71    2.86    0.00    0.22     0.3     0.3    0.28    0.61    0.89    0.90    0.87    0.88    0.89    0.24    0.23    0.24    0.24    0.12    0.12    0.06    0.03    0.03    0.03    0.46    0.52    0.52    0.52    0.73    1.01    0.96    0.91    0.92    0.92
 2023 152    43     0     1    20.2    18.3     1.9     0.0    8.65    9.11    0.07    0.00    0.00    8.65    2.05    3.01    0.00    0.27     0.3     0.3    0.29    0.50    0.89    0.91    0.87    0.88    0.89    0.23    0.23    0.23    0.23    0.12    0.12    0.06    0.03    0.03    0.03    0.50    0.53    0.53    0.52    0.62    1.00    0.97    0.90    0.91    0.92
 2023 153    44     0     1    20.1    18.2     1.9     0.0    9.04    9.52    0.07    0.00    0.00    9.04    2.51    3.01    0.00    0.31     0.3     0.3    0.30    0.37    0.91    0.92    0.88    0.89    0.90    0.22    0.22    0.23    0.23    0.12    0.12    0.06    0.03    0.03    0.03    0.53    0.52    0.53    0.52    0.49    1.03    0.98    0.91    0.92    0.93
 2023 154    45     0     1    20.1    18.2     1.9     0.0    9.45    9.94    0.07    0.00    0.00    9.45    2.94    3.03    0.00    0.17     0.3     0.3    0.32    0.28    0.91    0.94    0.89    0.90    0.90    0.21    0.21    0.22    0.22    0.12    0.12    0.06    0.03    0.03    0.03    0.39    0.50    0.55    0.55    0.40    1.03    1.00    0.93    0.94    0.93
 2023 155    46     0     1    19.5    17.6     1.9     0.0    9.83   10.28    0.07    0.00    0.00    9.83    3.19    3.71    0.00    0.18     0.3     0.3    0.27    0.26    0.78    0.90    0.88    0.89    0.91    0.23    0.23    0.23    0.23    0.12    0.12    0.06    0.03    0.03    0.03    0.42    0.48    0.49    0.50    0.38    0.90    0.97    0.91    0.93    0.94
 2023 156    47     0     1    19.8    17.9     1.9     0.0   10.21   10.66    0.07    0.00    0.00   10.21    3.24    3.74    0.00    0.21     0.3     0.3    0.29    0.27    0.79    0.92    0.89    0.91    0.91    0.23    0.23    0.23    0.23    0.12    0.12    0.06    0.03    0.03    0.03    0.45    0.51    0.52    0.52    0.39    0.91    0.98    0.92    0.94    0.94
 2023 157    48     0     1    19.8    17.9     1.9     0.0   10.60   11.04    0.08    0.00    0.00   10.60    3.41    3.96    0.00    0.25     0.3     0.3    0.28    0.27    0.77    0.92    0.89    0.91    0.92    0.23    0.23    0.23    0.23    0.12    0.12    0.06    0.03    0.03    0.03    0.49    0.52    0.52    0.51    0.39    0.88    0.98    0.92    0.94    0.95
 2023 158    49     0     1    19.8    17.9     1.9     0.0   10.98   11.45    0.08    0.00    0.00   10.98    3.77    4.01    0.00    0.30     0.3     0.3    0.29    0.27    0.67    0.93    0.89    0.91    0.92    0.23    0.22    0.23    0.22    0.12    0.12    0.06    0.03    0.03    0.03    0.53    0.52    0.52    0.51    0.39    0.78    0.99    0.93    0.95    0.95
 2023 159    50     0     1    19.6    17.7     1.9     0.0   11.38   11.86    0.08    0.00    0.00   11.38    4.39    4.01    0.00    0.30     0.3     0.3    0.30    0.27    0.48    0.94    0.90    0.92    0.93    0.22    0.22    0.22    0.22    0.12    0.12    0.06    0.03    0.03    0.03    0.52    0.52    0.52    0.51    0.39    0.60    1.01    0.93    0.95    0.96
 2023 160    51     0     1    19.3    17.5     1.9     0.0   11.80   12.30    0.08    0.00    0.00   11.80    5.04    4.01    0.00    0.31     0.3     0.3    0.30    0.28    0.30    0.96    0.91    0.93    0.93    0.21    0.21    0.21    0.21    0.12    0.12    0.06    0.03    0.03    0.03    0.52    0.51    0.52    0.51    0.39    0.41    1.02    0.94    0.96    0.97
 2023 161    52     0     1    19.4    17.6     1.9     0.0   12.24   12.76    0.08    0.00    0.00   12.24    5.38    4.01    0.00    0.31     0.3     0.3    0.30    0.28    0.28    0.98    0.92    0.94    0.94    0.20    0.20    0.21    0.21    0.12    0.12    0.06    0.03    0.03    0.03    0.52    0.51    0.51    0.51    0.39    0.39    1.04    0.95    0.97    0.97
 2023 162    53     0     1    19.6    17.7     1.8     0.0   12.68   13.22    0.08    0.00    0.00   12.68    5.69    4.01    0.00    0.31     0.3     0.3    0.30    0.28    0.28    0.99    0.92    0.94    0.95    0.20    0.20    0.20    0.20    0.12    0.12    0.06    0.03    0.03    0.03    0.51    0.50    0.51    0.50    0.39    0.39    1.06    0.96    0.98    0.98
 2023 163    54     0     1    19.4    17.6     1.8     0.0   13.11   13.65    0.08    0.00    0.00   13.11    6.24    4.01    0.00    0.30     0.3     0.3    0.30    0.28    0.27    0.94    0.93    0.95    0.95    0.20    0.19    0.20    0.20    0.12    0.12    0.06    0.03    0.03    0.03    0.50    0.50    0.50    0.50    0.39    0.39    1.01    0.97    0.99    0.99
 2023 164    55     0     1    19.0    17.2     1.8     0.0   13.49   14.05    0.08    0.00    0.00   13.49    7.07    4.01    0.00    0.30     0.3     0.3    0.29    0.27    0.27    0.82    0.94    0.96    0.96    0.19    0.19    0.20    0.20    0.12    0.12    0.06    0.03    0.03    0.03    0.49    0.49    0.49    0.49    0.39    0.39    0.88    0.97    0.99    0.99
 2023 165    56     0     1    18.3    16.5     1.8     0.0   13.85   14.42    0.08    0.00    0.00   13.85    8.11    4.01    0.00    0.29     0.3     0.3    0.29    0.27    0.27    0.64    0.95    0.97    0.97    0.19    0.19    0.19    0.19    0.12    0.12    0.06    0.03    0.03    0.03    0.49    0.48    0.49    0.48    0.39    0.39    0.70    0.98    1.00    1.00
 2023 166    57     0     1    17.5    15.7     1.8     0.0   14.18   14.76    0.08    0.00    0.00   14.18    9.20    4.01    0.00    0.29     0.3     0.3    0.29    0.27    0.27    0.43    0.95    0.97    0.97    0.19    0.19    0.19    0.19    0.12    0.11    0.06    0.03    0.03    0.03    0.48    0.48    0.48    0.48    0.39    0.38    0.50    0.99    1.00    1.00
 2023 167    58     0     1    16.9    15.2     1.8     0.0   14.51   15.10    0.08    0.00    0.00   14.51   10.12    4.01    0.00    0.29     0.3     0.3    0.29    0.27    0.27    0.27    0.96    0.98    0.98    0.19    0.19    0.19    0.19    0.12    0.11    0.06    0.03    0.03    0.03    0.48    0.48    0.48    0.48    0.39    0.38    0.33    0.99    1.01    1.01
 2023 168    59     0     1    17.0    15.2     1.8     0.0   14.85   15.44    0.08    0.00    0.00   14.85   10.40    4.01    0.00    0.29     0.3     0.3    0.29    0.27    0.27    0.26    0.97    0.98    0.98    0.19    0.19    0.19    0.19    0.12    0.11    0.06    0.03    0.03    0.03    0.48    0.48    0.48    0.48    0.39    0.38    0.33    1.00    1.02    1.02
 2023 169    60     0     1    17.1    15.3     1.8     0.0   15.21   15.81    0.08    0.00    0.00   15.21   10.68    4.01    0.00    0.30     0.3     0.3    0.29    0.27    0.27    0.26    0.97    0.99    0.99    0.19    0.19    0.19    0.19    0.12    0.11    0.06    0.03    0.03    0.03    0.49    0.48    0.48    0.48    0.39    0.39    0.33    1.01    1.02    1.02
 2023 170    61     0     1    17.2    15.4     1.8     0.0   15.61   16.20    0.08    0.00    0.00   15.61   10.97    4.01    0.00    0.30     0.3     0.3    0.29    0.27    0.27    0.26    0.98    1.00    1.00    0.19    0.19    0.19    0.19    0.11    0.11    0.06    0.03    0.03    0.03    0.49    0.48    0.48    0.48    0.39    0.39    0.33    1.01    1.03    1.03
 2023 171    62     0     1    17.3    15.5     1.8     0.0   16.04   16.63    0.08    0.00    0.00   16.04   11.29    4.01    0.00    0.30     0.3     0.3    0.30    0.28    0.27    0.27    0.99    1.00    1.00    0.19    0.19    0.19    0.19    0.11    0.11    0.06    0.03    0.03    0.03    0.49    0.49    0.49    0.49    0.39    0.39    0.33    1.02    1.04    1.04
 2023 172    63     0     1    17.4    15.6     1.8     0.0   16.48   17.08    0.08    0.00    0.00   16.48   11.63    4.01    0.00    0.31     0.3     0.3    0.30    0.28    0.28    0.27    1.00    1.01    1.01    0.19    0.19    0.19    0.19    0.11    0.12    0.06    0.03    0.03    0.03    0.49    0.49    0.49    0.49    0.39    0.39    0.33    1.03    1.05    1.04
 2023 173    64     0     1    17.5    15.7     1.8     0.0   16.95   17.55    0.08    0.00    0.00   16.95   11.98    4.01    0.00    0.18     0.3     0.3    0.33    0.28    0.28    0.27    1.01    1.02    1.02    0.19    0.18    0.19    0.19    0.11    0.12    0.06    0.03    0.03    0.03    0.36    0.49    0.53    0.52    0.39    0.39    0.33    1.04    1.06    1.05
 2023 174    65     0     1    17.6    15.7     1.8     0.0   17.44   17.99    0.08    0.00    0.00   17.44   12.40    4.01    0.00    0.17     0.3     0.3    0.31    0.29    0.28    0.27    1.02    1.03    1.02    0.21    0.20    0.19    0.18    0.11    0.12    0.06    0.04    0.03    0.03    0.39    0.47    0.49    0.50    0.41    0.39    0.33    1.05    1.06    1.06
 2023 175    66     0     1    17.7    15.9     1.9     0.0   17.93   18.44    0.08    0.00    0.00   17.93   12.75    4.01    0.00    0.19     0.3     0.3    0.30    0.29    0.29    0.27    1.03    1.04    1.03    0.23    0.21    0.20    0.19    0.11    0.11    0.06    0.04    0.03    0.03    0.42    0.49    0.49    0.49    0.40    0.40    0.33    1.06    1.07    1.07
 2023 176    67     0     1    17.7    15.8     1.9     0.0   18.41   18.91    0.08    0.00    0.00   18.41   13.09    4.14    0.00    0.24     0.3     0.3    0.28    0.27    0.28    0.27    0.98    1.04    1.04    0.23    0.21    0.21    0.20    0.11    0.11    0.06    0.04    0.04    0.03    0.47    0.50    0.49    0.48    0.38    0.40    0.34    1.02    1.08    1.08
 2023 177    68     0     1    17.8    16.0     1.9     0.0   18.87   19.37    0.09    0.00    0.00   18.87   13.41    4.17    0.00    0.29     0.3     0.3    0.29    0.28    0.28    0.27    0.98    1.05    1.05    0.22    0.21    0.21    0.20    0.11    0.11    0.06    0.04    0.04    0.03    0.51    0.51    0.50    0.49    0.39    0.39    0.33    1.02    1.09    1.08
 2023 178    69     0     1    17.9    16.1     1.9     0.0   19.31   19.82    0.09    0.00    0.00   19.31   13.77    4.17    0.00    0.31     0.3     0.3    0.30    0.28    0.28    0.27    0.98    1.06    1.06    0.21    0.20    0.21    0.20    0.11    0.11    0.06    0.04    0.04    0.03    0.52    0.51    0.50    0.49    0.39    0.39    0.33    1.02    1.09    1.09
 2023 179    70     0     1    18.0    16.1     1.8     0.0   19.75   20.29    0.09    0.00    0.00   19.75   14.15    4.17    0.00    0.31     0.3     0.3    0.30    0.28    0.28    0.27    0.98    1.07    1.06    0.20    0.20    0.20    0.19    0.11    0.11    0.06    0.04    0.04    0.03    0.51    0.50    0.50    0.49    0.39    0.39    0.33    1.02    1.10    1.10
 2023 180    71     0     1    18.1    16.2     1.8     0.0   20.22   20.78    0.09    0.00    0.00   20.22   14.54    4.17    0.00    0.30     0.3     0.3    0.30    0.28    0.28    0.27    0.98    1.08    1.07    0.19    0.19    0.19    0.19    0.11    0.11    0.06    0.04    0.04    0.03    0.49    0.50    0.50    0.49    0.39    0.39    0.33    1.02    1.11    1.11
 2023 181    72     0     1    18.1    16.3     1.8     0.0   20.71   21.27    0.09    0.00    0.00   20.71   14.95    4.17    0.00    0.22     0.3     0.3    0.32    0.28    0.28    0.27    0.98    1.09    1.08    0.19    0.19    0.19    0.19    0.11    0.11    0.06    0.04    0.04    0.03    0.41    0.50    0.52    0.50    0.40    0.39    0.33    1.02    1.12    1.11
 2023 182    73     0     1    18.2    16.3     1.8     0.0   21.19   21.73    0.09    0.00    0.00   21.19   15.39    4.17    0.00    0.23     0.3     0.3    0.30    0.28    0.28    0.27    0.98    1.10    1.09    0.22    0.20    0.20    0.19    0.11    0.11    0.06    0.04    0.04    0.03    0.45    0.48    0.49    0.49    0.40    0.40    0.33    1.01    1.13    1.12
 2023 183    74     0     1    18.2    16.4     1.9     0.0   21.68   22.20    0.09    0.00    0.00   21.68   15.75    4.25    0.00    0.27     0.3     0.3    0.29    0.27    0.28    0.27    0.95    1.10    1.10    0.22    0.20    0.20    0.20    0.11    0.11    0.06    0.04    0.04    0.04    0.49    0.49    0.49    0.48    0.39    0.39    0.34    0.98    1.13    1.13
 2023 184    75     0     1    18.3    16.5     1.9     0.0   22.17   22.68    0.09    0.00    0.00   22.17   16.12    4.25    0.00    0.30     0.3     0.3    0.30    0.28    0.28    0.27    0.94    1.11    1.11    0.22    0.20    0.20    0.20    0.11    0.11    0.06    0.04    0.04    0.04    0.52    0.50    0.50    0.50    0.39    0.39    0.33    0.97    1.14    1.14