*MANAGEMENT OPERATIONS DAILY OUTPUT FILE

*DSSAT Cropping System Model Ver. 4.8.2.000 -release  APR 04, 2025 15:50:50

*RUN   1        : farm_23                   MZCER048 UNLI2309    1
 MODEL          : MZCER048 - Maize
 EXPERIMENT     : UNLI2309 MZ PIO1366
 DATA PATH      :
 TREATMENT  1   : farm_23                   MZCER048
  

@YEAR DOY   DAS   DAP  IR#C  IRRC  NAPC  NICM  R#AC RESNC RESPC
 2023 110     1     0     0     0     0     0     1    55    16
 2023 111     2     0     0     0     0     0     1    55    16
 2023 112     3     0     0     0     0     0     1    55    16
 2023 113     4     0     0     0     0     0     1    55    16
 2023 114     5     0     0     0     0     0     1    55    16
 2023 115     6     0     0     0     0     0     1    55    16
 2023 116     7     0     0     0     0     0     1    55    16
 2023 117     8     0     0     0     0     0     1    55    16
 2023 118     9     0     0     0     0     0     1    55    16
 2023 119    10     0     0     0     0     0     1    55    16
 2023 120    11     0     0     0     0     0     1    55    16
 2023 121    12     0     0     0     0     0     1    55    16
 2023 122    13     0     1     0     1     0     1    55    16
 2023 123    14     1     1     0     1     0     1    55    16
 2023 124    15     2     1     0     1     0     1    55    16
 2023 125    16     3     1     0     1     0     1    55    16
 2023 126    17     4     1     0     1     0     1    55    16
 2023 127    18     5     1     0     1     0     1    55    16
 2023 128    19     6     1     0     1     0     1    55    16
 2023 129    20     7     1     0     1     0     1    55    16
 2023 130    21     8     1     0     1     0     1    55    16
 2023 131    22     9     1     0     1     0     1    55    16
 2023 132    23    10     1     0     1     0     1    55    16
 2023 133    24    11     1     0     1     0     1    55    16
 2023 134    25    12     1     0     1     0     1    55    16
 2023 135    26    13     1     0     1     0     1    55    16
 2023 136    27    14     1     0     1     0     1    55    16
 2023 137    28    15     1     0     1     0     1    55    16
 2023 138    29    16     1     0     1     0     1    55    16
 2023 139    30    17     1     0     1     0     1    55    16
 2023 140    31    18     1     0     1     0     1    55    16
 2023 141    32    19     1     0     1     0     1    55    16
 2023 142    33    20     1     0     1     0     1    55    16
 2023 143    34    21     1     0     1     0     1    55    16
 2023 144    35    22     1     0     1     0     1    55    16
 2023 145    36    23     1     0     1     0     1    55    16
 2023 146    37    24     1     0     1     0     1    55    16
 2023 147    38    25     1     0     1     0     1    55    16
 2023 148    39    26     1     0     1     0     1    55    16
 2023 149    40    27     1     0     1     0     1    55    16
 2023 150    41    28     1     0     1     0     1    55    16
 2023 151    42    29     1     0     1     0     1    55    16
 2023 152    43    30     1     0     1     0     1    55    16
 2023 153    44    31     1     0     1     0     1    55    16
 2023 154    45    32     1     0     1     0     1    55    16
 2023 155    46    33     1     0     1     0     1    55    16
 2023 156    47    34     1     0     1     0     1    55    16
 2023 157    48    35     1     0     1     0     1    55    16
 2023 158    49    36     1     0     1     0     1    55    16
 2023 159    50    37     1     0     1     0     1    55    16
 2023 160    51    38     1     0     1     0     1    55    16
 2023 161    52    39     1     0     1     0     1    55    16
 2023 162    53    40     1     0     1     0     1    55    16
 2023 163    54    41     1     0     1     0     1    55    16
 2023 164    55    42     1     0     1     0     1    55    16
 2023 165    56    43     1     0     1     0     1    55    16
 2023 166    57    44     1     0     1     0     1    55    16
 2023 167    58    45     1     0     1     0     1    55    16
 2023 168    59    46     1     0     1     0     1    55    16
 2023 169    60    47     1     0     1     0     1    55    16
 2023 170    61    48     1     0     1     0     1    55    16
 2023 171    62    49     1     0     1     0     1    55    16
 2023 172    63    50     1     0     1     0     1    55    16
 2023 173    64    51     1     0     1     0     1    55    16
 2023 174    65    52     1     0     1     0     1    55    16
 2023 175    66    53     1     0     1     0     1    55    16
 2023 176    67    54     1     0     1     0     1    55    16
 2023 177    68    55     1     0     1     0     1    55    16
 2023 178    69    56     1     0     1     0     1    55    16
 2023 179    70    57     1     0     1     0     1    55    16
 2023 180    71    58     1     0     1     0     1    55    16
 2023 181    72    59     1     0     1     0     1    55    16
 2023 182    73    60     1     0     1     0     1    55    16
 2023 183    74    61     1     0     1     0     1    55    16
 2023 184    75    62     1     0     1     0     1    55    16
 2023 185    76    63     1     0     1     0     1    55    16
 2023 186    77    64     1     0     1     0     1    55    16
 2023 187    78    65     1     0     1     0     1    55    16
 2023 188    79    66     1     0     1     0     1    55    16
 2023 189    80    67     1     0     1     0     1    55    16
 2023 190    81    68     1     0     1     0     1    55    16
 2023 191    82    69     1     0     1     0     1    55    16
 2023 192    83    70     1     0     1     0     1    55    16
 2023 193    84    71     1     0     1     0     1    55    16
 2023 194    85    72     1     0     1     0     1    55    16
 2023 195    86    73     1     0     1     0     1    55    16
 2023 196    87    74     1     0     1     0     1    55    16
 2023 197    88    75     1     0     1     0     1    55    16
 2023 198    89    76     1     0     1     0     1    55    16
 2023 199    90    77     1     0     1     0     1    55    16
 2023 200    91    78     1     0     1     0     1    55    16
 2023 201    92    79     1     0     1     0     1    55    16
 2023 202    93    80     1     0     1     0     1    55    16
 2023 203    94    81     1     0     1     0     1    55    16
 2023 204    95    82     1     0     1     0     1    55    16
 2023 205    96    83     1     0     1     0     1    55    16
 2023 206    97    84     1     0     1     0     1    55    16
 2023 207    98    85     1     0     1     0     1    55    16
 2023 208    99    86     1     0     1     0     1    55    16
 2023 209   100    87     1     0     1     0     1    55    16
 2023 210   101    88     1     0     1     0     1    55    16
 2023 211   102    89     1     0     1     0     1    55    16
 2023 212   103    90     1     0     1     0     1    55    16
 2023 213   104    91     1     0     1     0     1    55    16
 2023 214   105    92     1     0     1     0     1    55    16
 2023 215   106    93     1     0     1     0     1    55    16
 2023 216   107    94     1     0     1     0     1    55    16
 2023 217   108    95     1     0     1     0     1    55    16
 2023 218   109    96     1     0     1     0     1    55    16
 2023 219   110    97     1     0     1     0     1    55    16
 2023 220   111    98     1     0     1     0     1    55    16
 2023 221   112    99     1     0     1     0     1    55    16
 2023 222   113   100     1     0     1     0     1    55    16
 2023 223   114   101     1     0     1     0     1    55    16
 2023 224   115   102     1     0     1     0     1    55    16
 2023 225   116   103     1     0     1     0     1    55    16
 2023 226   117   104     1     0     1     0     1    55    16
 2023 227   118   105     1     0     1     0     1    55    16
 2023 228   119   106     1     0     1     0     1    55    16
 2023 229   120   107     1     0     1     0     1    55    16
 2023 230   121   108     1     0     1     0     1    55    16
 2023 231   122   109     1     0     1     0     1    55    16
 2023 232   123   110     1     0     1     0     1    55    16
 2023 233   124   111     1     0     1     0     1    55    16
 2023 234   125   112     1     0     1     0     1    55    16
 2023 235   126   113     1     0     1     0     1    55    16
 2023 236   127   114     1     0     1     0     1    55    16
 2023 237   128   115     1     0     1     0     1    55    16
 2023 238   129   116     1     0     1     0     1    55    16
 2023 239   130   117     1     0     1     0     1    55    16
 2023 240   131   118     1     0     1     0     1    55    16
 2023 241   132   119     1     0     1     0     1    55    16
 2023 242   133   120     1     0     1     0     1    55    16
 2023 243   134   121     1     0     1     0     1    55    16
 2023 244   135   122     1     0     1     0     1    55    16
 2023 245   136   123     1     0     1     0     1    55    16
 2023 246   137   124     1     0     1     0     1    55    16
 2023 247   138   125     1     0     1     0     1    55    16
 2023 248   139   126     1     0     1     0     1    55    16
 2023 249   140   127     1     0     1     0     1    55    16
 2023 250   141   128     1     0     1     0     1    55    16
 2023 251   142   129     1     0     1     0     1    55    16
 2023 252   143   130     1     0     1     0     1    55    16
 2023 253   144   131     1     0     1     0     1    55    16
 2023 254   145   132     1     0     1     0     1    55    16
 2023 255   146   133     1     0     1     0     1    55    16
 2023 256   147   134     1     0     1     0     1    55    16
 2023 257   148   135     1     0     1     0     1    55    16
 2023 258   149   136     1     0     1     0     1    55    16
 2023 259   150   137     1     0     1     0     1    55    16
 2023 260   151   138     1     0     1     0     1    55    16
 2023 261   152   139     1     0     1     0     1    55    16
 2023 262   153   140     1     0     1     0     1    55    16
 2023 263   154   141     1     0     1     0     1    55    16
 2023 264   155   142     1     0     1     0     1    55    16
 2023 265   156   143     1     0     1     0     1    55    16
 2023 266   157   144     1     0     1     0     1    55    16
 2023 267   158   145     1     0     1     0     1    55    16
 2023 268   159   146     1     0     1     0     1    55    16
