*SOIL WATER DAILY OUTPUT FILE

*DSSAT Cropping System Model Ver. 4.8.2.000 -release  APR 04, 2025 15:50:50

*RUN   1        : farm_23                   MZCER048 UNLI2309    1
 MODEL          : MZCER048 - Maize
 EXPERIMENT     : UNLI2309 MZ PIO1366
 DATA PATH      :
 TREATMENT  1   : farm_23                   MZCER048
  
!                                                                                                                                   Soil water content (mm3/mm3) by soil depth (cm):
!                                                                                                                                   0-5    5-15   15-23   23-31   31-46   46-61   61-91  91-106 106-122 122-152 152-167 167-183
@YEAR DOY   DAS    SWTD    SWXD    ROFC    DRNC    PREC    IR#C    IRRC   LATFC    DTWT    MWTD    TDFD    TDFC    ROFD    ROSD    SW1D    SW2D    SW3D    SW4D    SW5D    SW6D    SW7D    SW8D    SW9D   SW10D   SW11D   SW12D
 2023 109     0     425     207       0       0       0       0       0       0     183    0.87     0.0     0.0    0.00    0.00   0.289   0.289   0.289   0.289   0.255   0.255   0.220   0.210   0.210   0.210   0.210   0.210
 2023 110     1     425     207       0       0       0       0       0       0     183    0.30     0.0     0.0    0.00    0.00   0.286   0.289   0.289   0.289   0.255   0.255   0.220   0.210   0.210   0.210   0.210   0.210
 2023 111     2     425     207       0       0       0       0       0       0     183    0.93     0.0     0.0    0.00    0.00   0.287   0.289   0.289   0.289   0.255   0.255   0.220   0.210   0.210   0.210   0.210   0.210
 2023 112     3     425     207       0       0       0       0       0       0     183    0.18     0.0     0.0    0.00    0.00   0.287   0.289   0.289   0.289   0.255   0.255   0.220   0.210   0.210   0.210   0.210   0.210
 2023 113     4     425     207       0       0       0       0       0       0     183    0.03     0.0     0.0    0.00    0.00   0.287   0.288   0.289   0.289   0.255   0.255   0.220   0.210   0.210   0.210   0.210   0.210
 2023 114     5     425     206       0       0       0       0       0       0     183    0.01     0.0     0.0    0.00    0.00   0.284   0.288   0.289   0.289   0.255   0.255   0.220   0.210   0.210   0.210   0.210   0.210
 2023 115     6     425     206       0       0       0       0       0       0     183    0.00     0.0     0.0    0.00    0.00   0.282   0.288   0.289   0.289   0.255   0.255   0.220   0.210   0.210   0.210   0.210   0.210
 2023 116     7     425     206       0       0       0       0       0       0     183    0.00     0.0     0.0    0.00    0.00   0.280   0.287   0.289   0.289   0.255   0.255   0.220   0.210   0.210   0.210   0.210   0.210
 2023 117     8     424     206       0       0       0       0       0       0     183    0.00     0.0     0.0    0.00    0.00   0.277   0.287   0.289   0.289   0.255   0.255   0.220   0.210   0.210   0.210   0.210   0.210
 2023 118     9     424     206       0       0       0       0       0       0     183    0.00     0.0     0.0    0.00    0.00   0.276   0.286   0.288   0.289   0.255   0.255   0.220   0.210   0.210   0.210   0.210   0.210
 2023 119    10     424     206       0       0       0       0       0       0     183    0.00     0.0     0.0    0.00    0.00   0.273   0.285   0.288   0.289   0.255   0.255   0.220   0.210   0.210   0.210   0.210   0.210
 2023 120    11     424     205       0       0       0       0       0       0     183    0.00     0.0     0.0    0.00    0.00   0.271   0.284   0.288   0.289   0.255   0.255   0.220   0.210   0.210   0.210   0.210   0.210
 2023 121    12     424     205       0       0       0       0       0       0     183    0.00     0.0     0.0    0.00    0.00   0.269   0.283   0.287   0.289   0.255   0.255   0.220   0.210   0.210   0.210   0.210   0.210
 2023 122    13     423     205       0       0       0       0       0       0     183    0.00     0.0     0.0    0.00    0.00   0.267   0.283   0.287   0.288   0.255   0.255   0.220   0.210   0.210   0.210   0.210   0.210
 2023 123    14     423     205       0       0       0       0       0       0     183    0.00     0.0     0.0    0.00    0.00   0.265   0.282   0.287   0.288   0.255   0.255   0.220   0.210   0.210   0.210   0.210   0.210
 2023 124    15     436     218       0       0      17       0       0       0     183    3.50     0.0     0.0    0.00    0.00   0.412   0.335   0.291   0.288   0.255   0.255   0.220   0.210   0.210   0.210   0.210   0.210
 2023 125    16     451     232       0       0      31       0       0       0     183    0.92     0.0     0.0    0.00    0.00   0.415   0.385   0.366   0.330   0.255   0.255   0.220   0.210   0.210   0.210   0.210   0.210
 2023 126    17     451     232       0       0      32       0       0       0     183    0.46     0.0     0.0    0.00    0.00   0.371   0.363   0.368   0.350   0.273   0.255   0.220   0.210   0.210   0.210   0.210   0.210
 2023 127    18     451     232       0       0      32       0       0       0     183    0.37     0.0     0.0    0.00    0.00   0.351   0.349   0.359   0.352   0.291   0.256   0.220   0.210   0.210   0.210   0.210   0.210
 2023 128    19     451     232       0       0      32       0       0       0     183    0.07     0.0     0.0    0.00    0.00   0.340   0.339   0.343   0.340   0.293   0.279   0.220   0.210   0.210   0.210   0.210   0.210
 2023 129    20     450     232       0       0      35       0       0       0     183    2.67     0.0     0.0    0.00    0.00   0.332   0.337   0.340   0.340   0.295   0.282   0.220   0.210   0.210   0.210   0.210   0.210
 2023 130    21     472     254       0       0      57       0       0       0     183    1.71     0.0     0.0    0.00    0.00   0.416   0.404   0.389   0.369   0.305   0.296   0.222   0.210   0.210   0.210   0.210   0.210
 2023 131    22     490     271       0       0      78       0       0       0     183    3.57     0.0     0.0    0.00    0.00   0.415   0.405   0.405   0.405   0.335   0.319   0.242   0.210   0.210   0.210   0.210   0.210
 2023 132    23     513     295       0       0     103       0       0       0     183    2.60     0.0     0.0    0.00    0.00   0.415   0.405   0.405   0.405   0.369   0.352   0.269   0.245   0.210   0.210   0.210   0.210
 2023 133    24     513     295       0       0     104       0       0       0     183    1.45     0.0     0.0    0.00    0.00   0.371   0.371   0.390   0.396   0.344   0.347   0.278   0.269   0.246   0.210   0.210   0.210
 2023 134    25     513     295       0       0     104       0       0       0     183    0.90     0.0     0.0    0.00    0.00   0.351   0.352   0.370   0.380   0.329   0.336   0.278   0.280   0.264   0.226   0.210   0.210
 2023 135    26     513     295       0       0     104       0       0       0     183    0.46     0.0     0.0    0.00    0.00   0.341   0.343   0.355   0.365   0.318   0.326   0.275   0.280   0.272   0.246   0.214   0.210
 2023 136    27     506     287       0       7     104       0       0       0     183    0.09     0.0     0.0    0.00    0.00   0.334   0.337   0.342   0.346   0.304   0.307   0.264   0.259   0.256   0.246   0.246   0.245
 2023 137    28     506     287       0       8     109       0       0       0     183    3.50     0.0     0.0    0.00    0.00   0.333   0.336   0.339   0.342   0.301   0.303   0.263   0.257   0.256   0.249   0.250   0.248
 2023 138    29     499     280       0      15     109       0       0       0     183    0.67     0.0     0.0    0.00    0.00   0.333   0.334   0.335   0.337   0.297   0.298   0.259   0.250   0.250   0.247   0.247   0.248
 2023 139    30     497     279       0      16     109       0       0       0     183    0.13     0.0     0.0    0.00    0.00   0.333   0.334   0.335   0.334   0.297   0.295   0.259   0.247   0.247   0.247   0.247   0.248
 2023 140    31     497     279       0      16     109       0       0       0     183    0.02     0.0     0.0    0.00    0.00   0.325   0.334   0.335   0.334   0.297   0.295   0.259   0.247   0.247   0.247   0.247   0.248
 2023 141    32     497     278       0      16     109       0       0       0     183    0.00     0.0     0.0    0.00    0.00   0.320   0.332   0.335   0.334   0.297   0.295   0.259   0.247   0.247   0.247   0.247   0.248
 2023 142    33     496     278       0      16     109       0       0       0     183    0.00     0.0     0.0    0.00    0.00   0.315   0.330   0.334   0.334   0.297   0.295   0.259   0.247   0.247   0.247   0.247   0.248
 2023 143    34     495     277       0      16     109       0       0       0     183    0.00     0.0     0.0    0.00    0.00   0.312   0.328   0.332   0.334   0.297   0.295   0.259   0.247   0.247   0.247   0.247   0.248
 2023 144    35     495     276       0      16     109       0       0       0     183    0.00     0.0     0.0    0.00    0.00   0.308   0.325   0.331   0.333   0.297   0.295   0.259   0.247   0.247   0.247   0.247   0.248
 2023 145    36     495     276       0      16     113       0       0       0     183    3.50     0.0     0.0    0.00    0.00   0.311   0.323   0.330   0.332   0.297   0.295   0.259   0.247   0.247   0.247   0.247   0.248
 2023 146    37     516     298       0      17     135       0       0       0     183    2.19     0.0     0.0    0.00    0.00   0.420   0.396   0.378   0.359   0.304   0.300   0.260   0.249   0.248   0.247   0.248   0.248
 2023 147    38     515     297       0      17     136       0       0       0     183    1.85     0.0     0.0    0.00    0.00   0.373   0.367   0.377   0.370   0.310   0.306   0.262   0.252   0.250   0.247   0.249   0.248
 2023 148    39     542     323       0      19     168       0       0       0     183    3.58     0.0     0.0    0.00    0.00   0.414   0.404   0.404   0.404   0.346   0.330   0.270   0.263   0.257   0.250   0.252   0.251
 2023 149    40     541     323       0      21     171       0       0       0     182    2.10     0.0     0.0    0.00    0.00   0.386   0.373   0.392   0.397   0.335   0.333   0.274   0.273   0.266   0.254   0.258   0.255
 2023 150    41     512     294       0      49     171       0       0       0     183    0.40     0.0     0.0    0.00    0.00   0.353   0.348   0.355   0.358   0.311   0.310   0.264   0.256   0.253   0.248   0.250   0.249
 2023 151    42     501     282       0      61     171       0       0       0     183    0.08     0.0     0.0    0.00    0.00   0.334   0.337   0.341   0.342   0.300   0.300   0.260   0.249   0.248   0.246   0.247   0.247
 2023 152    43     497     279       0      63     171       0       0       0     183    0.01     0.0     0.0    0.00    0.00   0.327   0.334   0.335   0.336   0.296   0.297   0.260   0.247   0.246   0.246   0.247   0.247
 2023 153    44     496     278       0      63     171       0       0       0     183    0.00     0.0     0.0    0.00    0.00   0.322   0.331   0.334   0.335   0.296   0.297   0.260   0.247   0.246   0.246   0.247   0.247
 2023 154    45     518     300       0      64     198       0       0       0     183    3.50     0.0     0.0    0.00    0.00   0.412   0.402   0.387   0.367   0.306   0.302   0.261   0.250   0.248   0.247   0.248   0.247
 2023 155    46     504     285       0      78     198       0       0       0     183    0.67     0.0     0.0    0.00    0.00   0.362   0.359   0.353   0.345   0.298   0.297   0.258   0.247   0.246   0.247   0.248   0.247
 2023 156    47     504     285       0      79     202       0       0       0     183    3.53     0.0     0.0    0.00    0.00   0.355   0.347   0.351   0.348   0.300   0.300   0.259   0.248   0.247   0.246   0.248   0.247
 2023 157    48     498     280       0      83     202       0       0       0     183    0.68     0.0     0.0    0.00    0.00   0.340   0.337   0.338   0.338   0.296   0.296   0.259   0.246   0.247   0.246   0.248   0.247
 2023 158    49     497     278       0      84     202       0       0       0     183    0.13     0.0     0.0    0.00    0.00   0.333   0.332   0.333   0.333   0.294   0.296   0.259   0.246   0.247   0.246   0.248   0.247
 2023 159    50     495     277       0      84     202       0       0       0     183    0.03     0.0     0.0    0.00    0.00   0.321   0.330   0.331   0.331   0.293   0.296   0.259   0.246   0.247   0.246   0.248   0.247
 2023 160    51     495     276       0      84     206       0       0       0     183    3.50     0.0     0.0    0.00    0.00   0.327   0.327   0.329   0.329   0.292   0.295   0.259   0.246   0.247   0.246   0.248   0.247
 2023 161    52     494     275       0      84     206       0       0       0     183    0.67     0.0     0.0    0.00    0.00   0.325   0.325   0.327   0.328   0.291   0.294   0.259   0.246   0.247   0.246   0.248   0.247
 2023 162    53     493     275       0      84     206       0       0       0     183    0.13     0.0     0.0    0.00    0.00   0.323   0.323   0.325   0.326   0.289   0.294   0.259   0.246   0.247   0.246   0.248   0.247
 2023 163    54     492     273       0      84     206       0       0       0     183    0.02     0.0     0.0    0.00    0.00   0.315   0.322   0.323   0.324   0.288   0.293   0.259   0.246   0.247   0.246   0.248   0.247
 2023 164    55     490     272       0      84     206       0       0       0     183    0.00     0.0     0.0    0.00    0.00   0.307   0.319   0.321   0.322   0.287   0.292   0.259   0.246   0.247   0.246   0.248   0.247
 2023 165    56     489     270       0      84     206       0       0       0     183    0.00     0.0     0.0    0.00    0.00   0.300   0.315   0.319   0.320   0.285   0.291   0.259   0.246   0.247   0.246   0.248   0.247
 2023 166    57     487     269       0      84     207       0       0       0     183    0.29     0.0     0.0    0.00    0.00   0.295   0.311   0.316   0.318   0.284   0.289   0.259   0.246   0.247   0.246   0.248   0.247
 2023 167    58     486     268       0      84     207       0       0       0     183    0.05     0.0     0.0    0.00    0.00   0.295   0.308   0.314   0.316   0.282   0.288   0.258   0.246   0.247   0.246   0.248   0.247
 2023 168    59     485     266       0      84     207       0       0       0     183    0.49     0.0     0.0    0.00    0.00   0.290   0.305   0.311   0.314   0.281   0.287   0.258   0.246   0.247   0.246   0.248   0.247
 2023 169    60     483     265       0      84     207       0       0       0     183    0.09     0.0     0.0    0.00    0.00   0.290   0.301   0.308   0.311   0.279   0.285   0.257   0.246   0.247   0.246   0.248   0.247
 2023 170    61     481     263       0      84     207       0       0       0     183    0.02     0.0     0.0    0.00    0.00   0.281   0.298   0.305   0.308   0.276   0.284   0.257   0.246   0.247   0.246   0.248   0.247
 2023 171    62     480     262       0      84     207       0       0       0     183    0.29     0.0     0.0    0.00    0.00   0.279   0.295   0.303   0.307   0.275   0.283   0.256   0.246   0.247   0.246   0.248   0.247
 2023 172    63     479     260       0      84     210       0       0       0     183    2.43     0.0     0.0    0.00    0.00   0.281   0.292   0.300   0.304   0.273   0.281   0.256   0.246   0.247   0.246   0.248   0.247
 2023 173    64     500     282       0      84     234       0       0       0     183    1.77     0.0     0.0    0.00    0.00   0.416   0.378   0.353   0.333   0.273   0.280   0.255   0.246   0.247   0.246   0.248   0.247
 2023 174    65     503     285       0      84     242       0       0       0     183    3.57     0.0     0.0    0.00    0.00   0.411   0.367   0.366   0.349   0.290   0.278   0.254   0.246   0.247   0.246   0.248   0.247
 2023 175    66     501     283       0      84     243       0       0       0     183    1.92     0.0     0.0    0.00    0.00   0.366   0.352   0.360   0.354   0.297   0.287   0.253   0.246   0.247   0.246   0.248   0.247
 2023 176    67     497     279       0      86     243       0       0       0     183    0.37     0.0     0.0    0.00    0.00   0.343   0.338   0.341   0.338   0.292   0.293   0.256   0.246   0.247   0.246   0.248   0.247
 2023 177    68     495     276       0      87     243       0       0       0     183    0.07     0.0     0.0    0.00    0.00   0.332   0.332   0.333   0.332   0.292   0.292   0.256   0.246   0.247   0.246   0.248   0.247
 2023 178    69     493     274       0      87     243       0       0       0     183    0.01     0.0     0.0    0.00    0.00   0.323   0.330   0.330   0.330   0.290   0.290   0.255   0.246   0.247   0.246   0.248   0.247
 2023 179    70     490     272       0      87     243       0       0       0     183    0.00     0.0     0.0    0.00    0.00   0.314   0.325   0.327   0.327   0.287   0.288   0.254   0.246   0.247   0.246   0.248   0.247
 2023 180    71     490     272       0      87     249       0       0       0     183    3.50     0.0     0.0    0.00    0.00   0.338   0.328   0.323   0.323   0.285   0.286   0.253   0.246   0.247   0.246   0.248   0.247
 2023 181    72     501     283       0      87     261       0       0       0     183    1.71     0.0     0.0    0.00    0.00   0.411   0.363   0.352   0.340   0.290   0.285   0.252   0.246   0.247   0.246   0.248   0.247
 2023 182    73     500     281       0      87     262       0       0       0     183    1.09     0.0     0.0    0.00    0.00   0.367   0.351   0.354   0.347   0.296   0.290   0.251   0.245   0.247   0.246   0.248   0.247
 2023 183    74     497     278       0      88     262       0       0       0     183    0.21     0.0     0.0    0.00    0.00   0.343   0.337   0.339   0.336   0.293   0.292   0.256   0.245   0.247   0.246   0.248   0.247
 2023 184    75     494     276       0      88     262       0       0       0     183    0.04     0.0     0.0    0.00    0.00   0.328   0.332   0.332   0.333   0.291   0.292   0.256   0.245   0.247   0.246   0.248   0.247
 2023 185    76     493     275       0      88     267       0       0       0     183    3.50     0.0     0.0    0.00    0.00   0.335   0.332   0.333   0.330   0.289   0.290   0.255   0.245   0.247   0.246   0.248   0.247
 2023 186    77     493     274       0      88     267       0       0       0     183    2.49     0.0     0.0    0.00    0.00   0.335   0.333   0.331   0.329   0.289   0.289   0.254   0.245   0.247   0.246   0.248   0.247
 2023 187    78     503     285       0      88     280       0       0       0     183    3.31     0.0     0.0    0.00    0.00   0.414   0.360   0.352   0.343   0.295   0.291   0.254   0.245   0.247   0.246   0.248   0.247
 2023 188    79     509     291       0      88     289       0       0       0     183    2.06     0.0     0.0    0.00    0.00   0.413   0.372   0.369   0.358   0.300   0.296   0.256   0.245   0.247   0.246   0.248   0.247
 2023 189    80     508     289       0      89     290       0       0       0     183    1.21     0.0     0.0    0.00    0.00   0.368   0.356   0.364   0.361   0.305   0.301   0.258   0.247   0.247   0.246   0.248   0.247
 2023 190    81     499     280       0      96     290       0       0       0     183    0.23     0.0     0.0    0.00    0.00   0.344   0.339   0.343   0.342   0.296   0.295   0.257   0.247   0.247   0.246   0.248   0.247
 2023 191    82     502     283       0      96     299       0       0       0     183    3.51     0.0     0.0    0.00    0.00   0.375   0.345   0.345   0.343   0.296   0.295   0.258   0.247   0.247   0.246   0.248   0.247
 2023 192    83     497     278       0      99     299       0       0       0     183    0.68     0.0     0.0    0.00    0.00   0.347   0.335   0.335   0.334   0.294   0.293   0.257   0.247   0.247   0.246   0.248   0.247
 2023 193    84     495     276       0      99     299       0       0       0     183    0.13     0.0     0.0    0.00    0.00   0.336   0.332   0.333   0.332   0.292   0.292   0.256   0.247   0.247   0.246   0.248   0.247
 2023 194    85     507     289       0      99     316       0       0       0     183    3.51     0.0     0.0    0.00    0.00   0.409   0.371   0.361   0.349   0.297   0.295   0.256   0.247   0.247   0.246   0.248   0.247
 2023 195    86     517     299       0     100     328       0       0       0     183    1.02     0.0     0.0    0.00    0.00   0.413   0.393   0.389   0.372   0.307   0.301   0.259   0.249   0.248   0.246   0.248   0.248
 2023 196    87     503     285       0     113     328       0       0       0     183    0.20     0.0     0.0    0.00    0.00   0.363   0.355   0.353   0.347   0.297   0.295   0.258   0.246   0.248   0.246   0.248   0.248
 2023 197    88     501     282       0     113     329       0       0       0     183    0.32     0.0     0.0    0.00    0.00   0.340   0.343   0.348   0.347   0.298   0.297   0.258   0.247   0.248   0.246   0.248   0.248
 2023 198    89     496     278       0     116     329       0       0       0     183    0.06     0.0     0.0    0.00    0.00   0.330   0.335   0.337   0.336   0.294   0.295   0.256   0.247   0.248   0.246   0.248   0.248
 2023 199    90     495     276       0     116     329       0       0       0     183    0.01     0.0     0.0    0.00    0.00   0.324   0.332   0.333   0.333   0.293   0.294   0.256   0.247   0.248   0.246   0.248   0.248
 2023 200    91     494     275       0     116     329       0       0       0     183    0.00     0.0     0.0    0.00    0.00   0.323   0.329   0.331   0.331   0.292   0.293   0.256   0.247   0.247   0.246   0.248   0.248
 2023 201    92     494     276       0     116     334       0       0       0     183    3.50     0.0     0.0    0.00    0.00   0.341   0.333   0.329   0.330   0.291   0.292   0.255   0.247   0.247   0.246   0.248   0.248
 2023 202    93     493     275       0     116     334       0       0       0     183    0.67     0.0     0.0    0.00    0.00   0.337   0.332   0.331   0.328   0.289   0.290   0.254   0.247   0.247   0.246   0.248   0.248
 2023 203    94     497     278       0     116     342       0       0       0     183    3.53     0.0     0.0    0.00    0.00   0.378   0.342   0.338   0.334   0.289   0.289   0.253   0.247   0.247   0.246   0.248   0.248
 2023 204    95     496     277       0     116     343       0       0       0     183    1.20     0.0     0.0    0.00    0.00   0.354   0.340   0.340   0.336   0.292   0.287   0.252   0.247   0.247   0.246   0.248   0.248
 2023 205    96     494     276       0     116     343       0       0       0     183    0.23     0.0     0.0    0.00    0.00   0.339   0.334   0.334   0.334   0.292   0.293   0.252   0.247   0.247   0.246   0.248   0.248
 2023 206    97     493     274       0     116     343       0       0       0     183    0.04     0.0     0.0    0.00    0.00   0.328   0.332   0.332   0.331   0.292   0.291   0.251   0.246   0.247   0.246   0.248   0.248
 2023 207    98     491     272       0     116     343       0       0       0     183    0.01     0.0     0.0    0.00    0.00   0.320   0.329   0.330   0.329   0.290   0.290   0.250   0.246   0.247   0.246   0.248   0.248
 2023 208    99     489     271       0     116     343       0       0       0     183    0.00     0.0     0.0    0.00    0.00   0.312   0.326   0.327   0.327   0.289   0.288   0.249   0.246   0.247   0.246   0.248   0.248
 2023 209   100     487     269       0     116     343       0       0       0     183    0.00     0.0     0.0    0.00    0.00   0.307   0.322   0.325   0.325   0.287   0.287   0.249   0.246   0.247   0.246   0.248   0.248
 2023 210   101     486     267       0     116     344       0       0       0     183    0.76     0.0     0.0    0.00    0.00   0.302   0.318   0.322   0.323   0.286   0.286   0.248   0.245   0.247   0.246   0.248   0.248
 2023 211   102     485     266       0     116     344       0       0       0     183    0.15     0.0     0.0    0.00    0.00   0.306   0.315   0.320   0.321   0.284   0.284   0.247   0.245   0.247   0.246   0.248   0.248
 2023 212   103     483     265       0     116     347       0       0       0     183    3.16     0.0     0.0    0.00    0.00   0.304   0.313   0.318   0.319   0.283   0.283   0.247   0.245   0.247   0.246   0.248   0.248
 2023 213   104     482     264       0     116     348       0       0       0     183    0.89     0.0     0.0    0.00    0.00   0.306   0.311   0.316   0.317   0.281   0.282   0.246   0.244   0.247   0.246   0.248   0.248
 2023 214   105     482     264       0     116     352       0       0       0     183    3.54     0.0     0.0    0.00    0.00   0.325   0.309   0.314   0.316   0.280   0.281   0.246   0.244   0.247   0.246   0.248   0.248
 2023 215   106     493     275       0     116     364       0       0       0     183    1.36     0.0     0.0    0.00    0.00   0.408   0.354   0.339   0.324   0.279   0.280   0.245   0.244   0.247   0.246   0.248   0.248
 2023 216   107     509     291       0     116     385       0       0       0     183    3.56     0.0     0.0    0.00    0.00   0.414   0.403   0.391   0.366   0.298   0.286   0.245   0.244   0.247   0.246   0.248   0.248
 2023 217   108     502     284       0     122     385       0       0       0     183    0.68     0.0     0.0    0.00    0.00   0.364   0.360   0.355   0.345   0.294   0.293   0.257   0.245   0.247   0.246   0.248   0.248
 2023 218   109     498     279       0     126     385       0       0       0     183    0.13     0.0     0.0    0.00    0.00   0.344   0.343   0.341   0.337   0.293   0.293   0.256   0.245   0.247   0.246   0.248   0.248
 2023 219   110     513     294       0     126     404       0       0       0     183    3.51     0.0     0.0    0.00    0.00   0.412   0.384   0.375   0.359   0.302   0.298   0.260   0.245   0.247   0.246   0.248   0.248
 2023 220   111     512     293       0     127     404       0       0       0     183    0.77     0.0     0.0    0.00    0.00   0.370   0.362   0.371   0.366   0.307   0.303   0.261   0.250   0.249   0.247   0.248   0.248
 2023 221   112     510     292       0     128     406       0       0       0     183    1.86     0.0     0.0    0.00    0.00   0.350   0.348   0.359   0.361   0.308   0.306   0.262   0.253   0.251   0.248   0.249   0.249
 2023 222   113     500     282       0     137     406       0       0       0     183    0.36     0.0     0.0    0.00    0.00   0.339   0.338   0.342   0.343   0.299   0.298   0.258   0.248   0.247   0.248   0.247   0.246
 2023 223   114     497     278       0     139     406       0       0       0     183    0.07     0.0     0.0    0.00    0.00   0.331   0.334   0.336   0.336   0.295   0.295   0.258   0.246   0.247   0.248   0.247   0.246
 2023 224   115     496     277       0     139     406       0       0       0     183    0.01     0.0     0.0    0.00    0.00   0.324   0.332   0.335   0.333   0.294   0.294   0.257   0.246   0.247   0.248   0.247   0.246
 2023 225   116     495     276       0     139     406       0       0       0     183    0.00     0.0     0.0    0.00    0.00   0.322   0.330   0.334   0.333   0.294   0.294   0.257   0.246   0.247   0.248   0.247   0.246
 2023 226   117     494     275       0     139     406       0       0       0     183    0.00     0.0     0.0    0.00    0.00   0.317   0.328   0.332   0.332   0.293   0.293   0.257   0.246   0.247   0.248   0.247   0.246
 2023 227   118     493     274       0     139     406       0       0       0     183    0.00     0.0     0.0    0.00    0.00   0.313   0.326   0.330   0.331   0.292   0.292   0.256   0.246   0.247   0.248   0.247   0.246
 2023 228   119     492     273       0     139     406       0       0       0     183    0.00     0.0     0.0    0.00    0.00   0.308   0.324   0.328   0.329   0.291   0.292   0.256   0.246   0.247   0.248   0.247   0.246
 2023 229   120     491     272       0     139     406       0       0       0     183    0.00     0.0     0.0    0.00    0.00   0.305   0.321   0.326   0.328   0.291   0.291   0.255   0.246   0.247   0.248   0.247   0.246
 2023 230   121     490     271       0     139     406       0       0       0     183    0.00     0.0     0.0    0.00    0.00   0.301   0.319   0.325   0.327   0.290   0.291   0.255   0.246   0.247   0.248   0.247   0.246
 2023 231   122     489     270       0     139     406       0       0       0     183    0.00     0.0     0.0    0.00    0.00   0.297   0.316   0.323   0.325   0.289   0.290   0.255   0.246   0.247   0.248   0.247   0.246
 2023 232   123     488     269       0     139     406       0       0       0     183    0.00     0.0     0.0    0.00    0.00   0.294   0.314   0.321   0.324   0.288   0.289   0.254   0.246   0.247   0.248   0.247   0.246
 2023 233   124     487     268       0     139     406       0       0       0     183    0.00     0.0     0.0    0.00    0.00   0.290   0.311   0.320   0.322   0.287   0.289   0.254   0.246   0.247   0.248   0.247   0.246
 2023 234   125     486     267       0     139     406       0       0       0     183    0.00     0.0     0.0    0.00    0.00   0.286   0.309   0.318   0.321   0.286   0.288   0.253   0.246   0.247   0.248   0.247   0.246
 2023 235   126     485     266       0     139     406       0       0       0     183    0.00     0.0     0.0    0.00    0.00   0.284   0.307   0.316   0.320   0.285   0.288   0.253   0.245   0.247   0.248   0.247   0.246
 2023 236   127     484     265       0     139     406       0       0       0     183    0.00     0.0     0.0    0.00    0.00   0.281   0.305   0.315   0.319   0.285   0.287   0.253   0.245   0.247   0.248   0.247   0.246
 2023 237   128     483     265       0     139     406       0       0       0     183    0.00     0.0     0.0    0.00    0.00   0.282   0.303   0.313   0.317   0.284   0.287   0.253   0.245   0.247   0.248   0.247   0.246