*PLANT N OUTPUT FILE

*DSSAT Cropping System Model Ver. 4.8.2.000 -release  APR 04, 2025 15:50:50

*RUN   1        : farm_23                   MZCER048 UNLI2309    1
 MODEL          : MZCER048 - Maize
 EXPERIMENT     : UNLI2309 MZ PIO1366
 DATA PATH      :
 TREATMENT  1   : farm_23                   MZCER048
  
@YEAR DOY   DAS   DAP   CNAD   GNAD   VNAD   GN%D   VN%D   NUPC   LNAD   SNAD   LN%D   SN%D   RN%D   SNN0C   SNN1C
 2023 122    13     0    0.0    0.0    0.0   0.00   0.00    0.0    0.0    0.0    0.0   0.00   0.00    0.00    0.00
 2023 123    14     1    0.0    0.0    0.0   0.00   0.00    0.0    0.0    0.0    0.0   0.00   0.00    0.00    0.00
 2023 124    15     2    0.0    0.0    0.0   0.00   0.00    0.0    0.0    0.0    0.0   0.00   0.00    0.00    0.00
 2023 125    16     3    0.0    0.0    0.0   0.00   0.00    0.0    0.0    0.0    0.0   0.00   0.00    0.00    0.00
 2023 126    17     4    0.0    0.0    0.0   0.00   0.00    0.0    0.0    0.0    0.0   0.00   0.00    0.00    0.00
 2023 127    18     5    0.0    0.0    0.0   0.00   0.00    0.0    0.0    0.0    0.0   0.00   0.00    0.00    0.00
 2023 128    19     6    0.0    0.0    0.0   0.00   0.00    0.0    0.0    0.0    0.0   0.00   0.00    0.00    0.00
 2023 129    20     7    0.0    0.0    0.0   0.00   0.00    0.0    0.0    0.0    0.0   0.00   0.00    0.00    0.00
 2023 130    21     8    0.0    0.0    0.0   0.00   0.00    0.0    0.0    0.0    0.0   0.00   0.00    0.00    0.00
 2023 131    22     9    1.4    0.0    1.4   0.00   4.40    0.0    0.7    0.7    4.4   4.40   2.20    0.00    0.00
 2023 132    23    10    1.4    0.0    1.4   0.00   4.40    0.0    0.7    0.7    4.4   4.40   2.19    0.00    0.00
 2023 133    24    11    1.4    0.0    1.4   0.00   4.40    0.0    0.7    0.7    4.4   4.40   2.14    0.00    0.00
 2023 134    25    12    1.4    0.0    1.4   0.00   4.40    0.0    0.7    0.7    4.4   4.40   2.14    0.00    0.00
 2023 135    26    13    1.4    0.0    1.4   0.00   4.40    0.0    0.7    0.7    4.4   4.40   2.14    0.00    0.00
 2023 136    27    14    1.4    0.0    1.4   0.00   4.40    0.0    0.7    0.7    4.4   4.40   2.02    0.00    0.00
 2023 137    28    15    1.4    0.0    1.4   0.00   4.40    0.0    0.7    0.7    4.4   4.40   1.89    0.00    0.00
 2023 138    29    16    1.4    0.0    1.4   0.00   4.40    0.0    0.7    0.7    4.4   4.40   1.80    0.00    0.00
 2023 139    30    17    1.4    0.0    1.4   0.00   4.40    0.0    0.7    0.7    4.4   4.40   1.66    0.00    0.00
 2023 140    31    18    1.4    0.0    1.4   0.00   4.40    0.0    0.7    0.7    4.4   4.40   1.50    0.00    0.00
 2023 141    32    19    1.4    0.0    1.4   0.00   4.40    0.0    0.7    0.7    4.4   4.40   1.39    0.00    0.00
 2023 142    33    20    1.4    0.0    1.4   0.00   4.40    0.0    0.7    0.7    4.4   4.40   1.28    0.00    0.00
 2023 143    34    21    1.4    0.0    1.4   0.00   4.40    0.0    0.7    0.7    4.4   4.40   1.13    0.00    0.00
 2023 144    35    22    1.4    0.0    1.4   0.00   4.04    0.0    0.7    0.7    4.0   4.04   1.24    0.00    0.00
 2023 145    36    23    1.4    0.0    1.4   0.00   3.58    0.1    0.8    0.6    3.6   3.58   1.19    0.00    0.00
 2023 146    37    24    1.6    0.0    1.6   0.00   3.64    0.3    1.0    0.6    3.6   3.64   1.08    0.00    0.01
 2023 147    38    25    1.8    0.0    1.8   0.00   3.48    0.7    1.3    0.6    3.5   3.48   1.24    0.00    0.01
 2023 148    39    26    2.1    0.0    2.1   0.00   3.52    1.0    1.5    0.6    3.5   3.52   1.23    0.00    0.01
 2023 149    40    27    2.3    0.0    2.3   0.00   3.27    1.4    1.8    0.5    3.3   3.27   1.20    0.00    0.02
 2023 150    41    28    2.6    0.0    2.6   0.00   3.05    1.7    2.1    0.5    3.0   3.05   1.12    0.00    0.02
 2023 151    42    29    2.8    0.0    2.8   0.00   2.83    2.1    2.3    0.5    2.8   2.83   1.04    0.00    0.02
 2023 152    43    30    3.2    0.0    3.2   0.00   2.81    2.5    2.7    0.5    2.8   2.81   1.03    0.00    0.03
 2023 153    44    31    3.5    0.0    3.5   0.00   2.96    2.9    3.0    0.5    3.0   2.96   1.00    0.00    0.03
 2023 154    45    32    3.7    0.0    3.7   0.00   2.85    3.2    3.2    0.5    2.8   2.85   0.96    0.00    0.04
 2023 155    46    33    3.7    0.0    3.7   0.00   2.56    3.2    3.3    0.4    2.6   2.56   0.80    0.00    0.05
 2023 156    47    34    3.8    0.0    3.8   0.00   2.34    3.4    3.4    0.4    2.3   2.34   0.72    0.00    0.05
 2023 157    48    35    4.0    0.0    4.0   0.00   2.27    3.8    3.7    0.4    2.3   2.27   0.67    0.00    0.06
 2023 158    49    36    4.4    0.0    4.4   0.00   2.27    4.4    4.1    0.4    2.3   2.27   0.67    0.00    0.07
 2023 159    50    37    4.9    0.0    4.9   0.00   2.23    5.0    4.5    0.4    2.2   2.23   0.66    0.00    0.08
 2023 160    51    38    5.1    0.0    5.1   0.00   2.10    5.4    4.7    0.3    2.1   2.10   0.64    0.00    0.09
 2023 161    52    39    5.3    0.0    5.3   0.00   2.00    5.7    5.0    0.3    2.0   2.00   0.61    0.00    0.09
 2023 162    53    40    5.7    0.0    5.7   0.00   2.02    6.2    5.3    0.3    2.0   2.02   0.61    0.00    0.11
 2023 163    54    41    6.2    0.0    6.2   0.00   2.11    7.1    5.8    0.4    2.1   2.11   0.63    0.00    0.12
 2023 164    55    42    6.8    0.0    6.8   0.00   2.20    8.1    6.4    0.4    2.2   2.20   0.65    0.00    0.13
 2023 165    56    43    7.4    0.0    7.4   0.00   2.24    9.2    7.0    0.4    2.2   2.24   0.68    0.00    0.14
 2023 166    57    44    8.0    0.0    8.0   0.00   2.17   10.1    7.6    0.4    2.2   2.17   0.70    0.00    0.16
 2023 167    58    45    8.2    0.0    8.2   0.00   2.04   10.4    7.8    0.5    2.0   2.04   0.67    0.00    0.18
 2023 168    59    46    8.4    0.0    8.4   0.00   1.93   10.7    7.9    0.5    1.9   1.93   0.64    0.00    0.20
 2023 169    60    47    8.6    0.0    8.6   0.00   1.80   11.0    8.1    0.5    1.8   1.80   0.61    0.00    0.22
 2023 170    61    48    8.8    0.0    8.8   0.00   1.70   11.3    8.2    0.6    1.7   1.70   0.58    0.00    0.24
 2023 171    62    49    9.0    0.0    9.0   0.00   1.60   11.6    8.4    0.7    1.6   1.60   0.58    0.00    0.26
 2023 172    63    50    9.3    0.0    9.3   0.00   1.51   12.0    8.5    0.8    1.5   1.51   0.58    0.00    0.28
 2023 173    64    51    9.6    0.0    9.6   0.00   1.46   12.4    8.7    0.9    1.5   1.46   0.58    0.00    0.30
 2023 174    65    52    9.8    0.0    9.8   0.00   1.40   12.8    8.8    1.0    1.4   1.40   0.57    0.00    0.32
 2023 175    66    53   10.1    0.0   10.1   0.00   1.36   13.1    9.0    1.1    1.4   1.36   0.55    0.00    0.34
 2023 176    67    54   10.3    0.0   10.3   0.00   1.33   13.4    9.1    1.2    1.3   1.33   0.53    0.00    0.37
 2023 177    68    55   10.5    0.0   10.5   0.00   1.30   13.8    9.2    1.3    1.3   1.30   0.52    0.00    0.39
 2023 178    69    56   10.8    0.0   10.8   0.00   1.26   14.1    9.3    1.5    1.3   1.26   0.52    0.00    0.41
 2023 179    70    57   11.1    0.0   11.1   0.00   1.21   14.5    9.4    1.7    1.2   1.21   0.51    0.00    0.44
 2023 180    71    58   11.4    0.0   11.4   0.00   1.18   14.9    9.5    1.8    1.2   1.18   0.51    0.00    0.46
 2023 181    72    59   11.7    0.0   11.7   0.00   1.16   15.4    9.7    2.0    1.2   1.16   0.51    0.00    0.48
 2023 182    73    60   11.9    0.0   11.9   0.00   1.15   15.8    9.8    2.2    1.1   1.15   0.51    0.00    0.51
 2023 183    74    61   12.2    0.0   12.2   0.00   1.12   16.1    9.8    2.3    1.1   1.12   0.50    0.00    0.53
 2023 184    75    62   12.5    0.0   12.5   0.00   1.05   16.5    9.8    2.7    1.0   1.05   0.51    0.00    0.56
 2023 185    76    63   12.8    0.0   12.8   0.00   1.00   17.0    9.7    3.1    1.0   1.00   0.52    0.00    0.59
 2023 186    77    64   13.2    0.0   13.2   0.00   1.00   17.4    9.9    3.3    1.0   1.00   0.53    0.00    0.61
 2023 187    78    65   13.5    0.0   13.5   0.00   1.00   17.8   10.0    3.5    1.0   1.00   0.53    0.00    0.64
 2023 188    79    66   13.7    0.0   13.7   0.00   0.98   18.1    9.9    3.8    1.0   0.98   0.53    0.00    0.67
 2023 189    80    67   14.0    0.0   14.0   0.00   0.97   18.4   10.0    4.0    1.0   0.97   0.54    0.00    0.69
 2023 190    81    68   14.1    0.0   14.1   0.00   0.95   18.6    9.9    4.3    1.0   0.95   0.53    0.00    0.72
 2023 191    82    69   14.4    0.0   14.4   0.00   0.92   18.9    9.8    4.6    0.9   0.92   0.53    0.00    0.75
 2023 192    83    70   14.6    0.0   14.6   0.00   0.90   19.2    9.7    4.9    0.9   0.90   0.53    0.00    0.78
 2023 193    84    71   14.9    0.0   14.9   0.00   0.88   19.6    9.6    5.3    0.9   0.88   0.54    0.00    0.81
 2023 194    85    72   15.3    0.0   15.3   0.00   0.88   20.1    9.7    5.6    0.9   0.88   0.54    0.00    0.83
 2023 195    86    73   15.6    0.0   15.6   0.00   0.87   20.5    9.8    5.9    0.9   0.87   0.55    0.00    0.86
 2023 196    87    74   15.8    0.0   15.8   0.00   0.86   20.7    9.7    6.1    0.9   0.86   0.55    0.00    0.89
 2023 197    88    75   16.1    0.0   16.1   0.00   0.85   21.1    9.8    6.4    0.9   0.85   0.55    0.00    0.92
 2023 198    89    76   16.4    0.0   16.4   0.00   0.85   21.6    9.8    6.6    0.8   0.85   0.55    0.00    0.95
 2023 199    90    77   16.8    0.0   16.8   0.00   0.85   22.0   10.0    6.8    0.9   0.85   0.56    0.00    0.98
 2023 200    91    78   17.2    0.0   17.2   0.00   0.86   22.5   10.1    7.1    0.9   0.86   0.57    0.00    1.01
 2023 201    92    79   17.5    0.0   17.5   0.00   0.87   22.9   10.3    7.3    0.9   0.87   0.57    0.00    1.04
 2023 202    93    80   17.9    0.0   17.9   0.00   0.88   23.3   10.5    7.4    0.9   0.88   0.58    0.00    1.07
 2023 203    94    81   18.2    0.0   18.2   0.00   0.88   23.8   10.6    7.6    0.9   0.88   0.58    0.00    1.10
 2023 204    95    82   18.5    0.0   18.5   0.00   0.88   24.2   10.8    7.7    0.9   0.88   0.58    0.00    1.13
 2023 205    96    83   18.9    0.0   18.9   0.00   0.88   24.6   10.6    8.3    0.9   0.88   0.59    0.00    1.17
 2023 206    97    84   19.2    0.0   19.2   0.00   0.88   25.0   10.5    8.8    0.9   0.88   0.60    0.00    1.20
 2023 207    98    85   19.7    0.0   19.7   0.00   0.89   25.5   10.3    9.3    0.9   0.89   0.60    0.00    1.23
 2023 208    99    86   20.1    0.0   20.1   0.00   0.89   26.1   10.2    9.9    0.9   0.89   0.61    0.00    1.26
 2023 209   100    87   20.6    0.0   20.6   0.00   0.90   26.7   10.1   10.5    0.9   0.90   0.62    0.00    1.29
 2023 210   101    88   21.0    0.0   21.0   0.00   0.91   27.3   10.0   11.1    0.9   0.91   0.63    0.00    1.33
 2023 211   102    89   21.5    0.0   21.5   0.00   0.92   27.8    9.9   11.6    0.9   0.92   0.64    0.00    1.36
 2023 212   103    90   21.9    0.0   21.9   0.00   0.93   28.4    9.7   12.2    0.9   0.93   0.65    0.00    1.39
 2023 213   104    91   22.4    0.0   22.4   0.00   0.94   28.9    9.6   12.8    0.9   0.94   0.65    0.00    1.43
 2023 214   105    92   22.8    0.8   22.0   0.87   0.93   29.4    9.5   12.5    0.9   0.93   0.66    0.00    1.46
 2023 215   106    93   23.2    1.1   22.0   0.86   0.93   29.9    9.5   12.6    0.9   0.93   0.67    0.00    1.50
 2023 216   107    94   23.6    1.5   22.1   0.86   0.93   30.4    9.5   12.6    0.9   0.93   0.68    0.00    1.53
 2023 217   108    95   23.8    1.9   22.0   0.86   0.92   30.8    9.4   12.6    0.9   0.92   0.68    0.00    1.57
 2023 218   109    96   24.1    2.2   21.9   0.87   0.92   31.1    9.4   12.5    0.9   0.92   0.69    0.00    1.60
 2023 219   110    97   24.5    2.6   21.9   0.87   0.93   31.6    9.4   12.5    0.9   0.93   0.70    0.00    1.64
 2023 220   111    98   24.8    2.9   21.8   0.87   0.92   32.0    9.3   12.5    0.9   0.92   0.70    0.00    1.68
 2023 221   112    99   25.0    3.3   21.7   0.87   0.91   32.3    9.3   12.4    0.9   0.91   0.71    0.00    1.71
 2023 222   113   100   25.3    3.7   21.6   0.87   0.91   32.6    9.2   12.4    0.9   0.91   0.71    0.00    1.75
 2023 223   114   101   25.6    4.0   21.5   0.87   0.90   33.0    9.2   12.3    0.9   0.90   0.72    0.00    1.79
 2023 224   115   102   25.9    4.4   21.5   0.88   0.90   33.4    9.2   12.3    0.9   0.90   0.73    0.00    1.82
 2023 225   116   103   26.3    4.8   21.5   0.88   0.90   33.9    9.2   12.3    0.9   0.90   0.74    0.00    1.86
 2023 226   117   104   26.6    5.2   21.5   0.88   0.90   34.4    9.2   12.3    0.9   0.90   0.74    0.00    1.90
 2023 227   118   105   27.0    5.6   21.4   0.88   0.90   34.8    9.2   12.3    0.9   0.90   0.75    0.00    1.94
 2023 228   119   106   27.3    5.9   21.3   0.89   0.90   35.2    9.1   12.2    0.9   0.90   0.76    0.00    1.98
 2023 229   120   107   27.6    6.3   21.3   0.89   0.90   35.7    9.1   12.2    0.9   0.90   0.77    0.00    2.01
 2023 230   121   108   28.0    6.7   21.2   0.89   0.89   36.1    9.1   12.2    0.9   0.89   0.77    0.00    2.05
 2023 231   122   109   28.3    7.1   21.2   0.90   0.89   36.6    9.1   12.1    0.9   0.89   0.78    0.00    2.09
 2023 232   123   110   28.7    7.5   21.2   0.90   0.89   37.1    9.1   12.1    0.9   0.89   0.79    0.00    2.13
 2023 233   124   111   29.2    7.8   21.4   0.91   0.90   37.7    9.1   12.3    0.9   0.90   0.80    0.00    2.17
 2023 234   125   112   29.6    8.0   21.6   0.91   0.91   38.3    9.2   12.4    0.9   0.91   0.81    0.00    2.21
 2023 235   126   113   30.1    8.3   21.8   0.92   0.92   39.0    9.3   12.5    0.9   0.92   0.82    0.00    2.25
 2023 236   127   114   30.7    8.7   22.0   0.93   0.92   39.6    9.4   12.6    0.9   0.92   0.83    0.00    2.30
 2023 237   128   115   31.2    9.1   22.0   0.93   0.93   40.3    9.5   12.6    0.9   0.93   0.85    0.00    2.34
 2023 238   129   116   31.7    9.6   22.1   0.94   0.93   41.0    9.5   12.6    0.9   0.93   0.86    0.00    2.38
 2023 239   130   117   32.1   10.1   22.0   0.95   0.93   41.5    9.4   12.6    0.9   0.93   0.88    0.00    2.42
 2023 240   131   118   32.5   10.6   22.0   0.96   0.93   42.0    9.4   12.5    0.9   0.93   0.89    0.00    2.47
 2023 241   132   119   32.9   11.0   21.8   0.97   0.92   42.5    9.4   12.5    0.9   0.92   0.90    0.00    2.51
 2023 242   133   120   33.2   11.5   21.7   0.97   0.92   43.0    9.3   12.4    0.9   0.92   0.91    0.00    2.56
 2023 243   134   121   33.6   12.0   21.5   0.98   0.91   43.4    9.2   12.3    0.9   0.91   0.92    0.00    2.60
 2023 244   135   122   33.9   12.5   21.5   0.99   0.90   43.9    9.2   12.3    0.9   0.90   0.93    0.00    2.65
 2023 245   136   123   34.3   12.9   21.4   1.00   0.90   44.4    9.2   12.3    0.9   0.90   0.94    0.00    2.69
 2023 246   137   124   34.8   13.4   21.3   1.01   0.90   45.0    9.1   12.2    0.9   0.90   0.95    0.00    2.74
 2023 247   138   125   35.3   14.0   21.3   1.01   0.90   45.6    9.1   12.2    0.9   0.90   0.97    0.00    2.78
 2023 248   139   126   35.8   14.4   21.4   1.02   0.90   46.2    9.2   12.2    0.9   0.90   0.98    0.00    2.83
 2023 249   140   127   36.2   15.0   21.3   1.03   0.90   46.8    9.1   12.1    0.9   0.90   0.99    0.00    2.88
 2023 250   141   128   36.6   15.5   21.1   1.04   0.90   47.2    9.1   12.0    0.9   0.90   1.00    0.00    2.93
 2023 251   142   129   37.0   16.0   20.9   1.04   0.89   47.7    9.0   11.9    0.9   0.89   1.01    0.00    2.97
 2023 252   143   130   37.3   16.6   20.7   1.05   0.89   48.1    9.0   11.7    0.9   0.89   1.01    0.00    3.02
 2023 253   144   131   37.7   17.1   20.6   1.06   0.89   48.5    9.0   11.5    0.9   0.89   1.02    0.00    3.07
 2023 254   145   132   38.0   17.6   20.4   1.06   0.89   48.9    9.0   11.4    0.9   0.89   1.03    0.00    3.12
 2023 255   146   133   38.3   18.2   20.1   1.07   0.88   49.3    8.9   11.2    0.9   0.88   1.04    0.00    3.16
 2023 256   147   134   38.6   18.7   19.9   1.08   0.87   49.7    8.9   11.0    0.9   0.87   1.04    0.00    3.21
 2023 257   148   135   38.9   19.3   19.7   1.08   0.87   50.0    8.8   10.8    0.9   0.87   1.05    0.00    3.26
 2023 258   149   136   39.3   19.8   19.4   1.09   0.87   50.4    8.8   10.6    0.9   0.87   1.05    0.00    3.31
 2023 259   150   137   39.5   20.4   19.1   1.10   0.86   50.7    8.7   10.4    0.9   0.86   1.06    0.00    3.36
 2023 260   151   138   39.8   21.0   18.9   1.10   0.85   51.1    8.6   10.2    0.8   0.85   1.06    0.00    3.40
 2023 261   152   139   40.2   21.5   18.7   1.11   0.85   51.5    8.6   10.1    0.8   0.85   1.07    0.00    3.45
 2023 262   153   140   40.6   22.1   18.5   1.11   0.84   51.9    8.6    9.9    0.8   0.84   1.07    0.00    3.50
 2023 263   154   141   40.6   22.1   18.5   1.11   0.84   51.9    8.6    9.9    0.8   0.84   1.07    0.00    3.50
 2023 264   155   142   40.6   22.1   18.5   1.11   0.84   51.9    8.6    9.9    0.8   0.84   1.07    0.00    3.50
 2023 265   156   143   40.6   22.1   18.5   1.11   0.84   51.9    8.6    9.9    0.8   0.84   1.07    0.00    3.50
 2023 266   157   144   40.6   22.1   18.5   1.11   0.84   51.9    8.6    9.9    0.8   0.84   1.07    0.00    3.50
 2023 267   158   145   40.6   22.1   18.5   1.11   0.84   51.9    8.6    9.9    0.8   0.84   1.07    0.00    3.50
 2023 268   159   146   40.6   22.1   18.5   1.11   0.84   51.9    8.6    9.9    0.8   0.84   1.07    0.00    3.50
