*SOIL WATER DAILY OUTPUT FILE

*DSSAT Cropping System Model Ver. 4.8.2.000 -release  JAN 10, 2025 06:19:03

*RUN   1        : silt_loam_13in_irr        MZCER048 UNLI2201    1
 MODEL          : MZCER048 - Maize
 EXPERIMENT     : UNLI2201 MZ IRRIGATED MAIZE PRODUCTION
 DATA PATH      :
 TREATMENT  1   : silt_loam_13in_irr        MZCER048
  
!                                                                                                                                   Soil water content (mm3/mm3) by soil depth (cm):
!                                                                                                                                   0-5    5-15   15-23   23-38   38-53   53-61   61-69   69-84   84-99  99-114 114-130 130-145 145-160
@YEAR DOY   DAS    SWTD    SWXD    ROFC    DRNC    PREC    IR#C    IRRC   LATFC    DTWT    MWTD    TDFD    TDFC    ROFD    ROSD    SW1D    SW2D    SW3D    SW4D    SW5D    SW6D    SW7D    SW8D    SW9D   SW10D   SW11D   SW12D   SW13D
 2022 120     0     298     208       0       0       0       0       0       0     160    0.00     0.0     0.0    0.00    0.00   0.200   0.207   0.210   0.210   0.170   0.150   0.150   0.190   0.180   0.180   0.180   0.200   0.190
 2022 121     1     297     207       0       0       0       0       0       0     160    0.00     0.0     0.0    0.00    0.00   0.185   0.206   0.210   0.210   0.170   0.150   0.150   0.190   0.180   0.180   0.180   0.200   0.190
 2022 122     2     330     240       3       0      37       0       0       0     160    0.00     0.0     0.0    2.93    0.00   0.385   0.346   0.279   0.224   0.176   0.154   0.153   0.190   0.180   0.180   0.180   0.200   0.190
 2022 123     3     314     225       3      13      37       0       0       0     160    0.00     0.0     0.0    0.00    0.00   0.292   0.284   0.248   0.216   0.172   0.152   0.152   0.189   0.179   0.179   0.179   0.199   0.189
 2022 124     4     319     229       3      13      42       0       0       0     160    0.00     0.0     0.0    0.00    0.00   0.323   0.273   0.266   0.225   0.177   0.156   0.154   0.190   0.179   0.179   0.179   0.199   0.189
 2022 125     5     320     230       3      13      45       0       0       0     160    0.00     0.0     0.0    0.00    0.00   0.301   0.262   0.270   0.231   0.182   0.163   0.157   0.192   0.178   0.179   0.179   0.199   0.189
 2022 126     6     306     216       3      20      45       0       0       0     160    0.00     0.0     0.0    0.00    0.00   0.231   0.230   0.239   0.218   0.175   0.156   0.152   0.190   0.178   0.179   0.179   0.199   0.189
 2022 127     7     312     222       3      20      56       0       0       0     160    0.00     0.0     0.0    0.00    0.00   0.339   0.240   0.243   0.219   0.176   0.158   0.154   0.190   0.177   0.177   0.177   0.197   0.188
 2022 128     8     302     212       3      25      56       0       0       0     160    0.00     0.0     0.0    0.00    0.00   0.251   0.217   0.223   0.211   0.171   0.153   0.150   0.188   0.178   0.179   0.179   0.199   0.189
 2022 129     9     321     231       3      25      56       1      25       0     160    0.00     0.0     0.0    0.00    0.00   0.352   0.313   0.270   0.221   0.174   0.155   0.151   0.187   0.177   0.177   0.177   0.197   0.188
 2022 130    10     340     250       3      25      56       2      51       0     160    0.00     0.0     0.0    0.00    0.00   0.348   0.366   0.364   0.247   0.186   0.165   0.156   0.188   0.175   0.176   0.176   0.196   0.187
 2022 131    11     359     269       3      25      56       3      76       0     160    0.00     0.0     0.0    0.00    0.00   0.353   0.366   0.372   0.310   0.219   0.196   0.171   0.192   0.176   0.175   0.175   0.195   0.186
 2022 132    12     379     290       3      25      56       4     102       0     160    0.00     0.0     0.0    0.00    0.00   0.361   0.369   0.374   0.352   0.256   0.241   0.198   0.201   0.181   0.175   0.174   0.194   0.185
 2022 133    13     399     309       3      25      56       5     127       0     160    0.00     0.0     0.0    0.00    0.00   0.358   0.368   0.373   0.379   0.288   0.293   0.236   0.213   0.190   0.182   0.173   0.193   0.184
 2022 134    14     419     329       3      25      56       6     152       0     160    0.00     0.0     0.0    0.00    0.00   0.360   0.369   0.374   0.387   0.319   0.345   0.281   0.231   0.201   0.189   0.179   0.192   0.183
 2022 135    15     439     349       3      25      57       7     178       0     160    0.00     0.0     0.0    0.00    0.00   0.356   0.368   0.373   0.387   0.346   0.344   0.345   0.262   0.221   0.201   0.187   0.197   0.182
 2022 136    16     432     342       3      25      58       7     178       0     160    0.00     0.0     0.0    0.00    0.00   0.274   0.309   0.356   0.343   0.327   0.343   0.344   0.293   0.245   0.218   0.198   0.205   0.185
 2022 137    17     373     283       3      78      58       7     178       0     160    0.00     0.0     0.0    0.00    0.00   0.220   0.258   0.290   0.284   0.260   0.263   0.263   0.249   0.217   0.201   0.189   0.202   0.189
 2022 138    18     337     247       3     108      58       7     178       0     160    0.00     0.0     0.0    0.00    0.00   0.186   0.226   0.250   0.249   0.220   0.215   0.215   0.223   0.200   0.191   0.184   0.200   0.189
 2022 139    19     316     226       3     123      58       7     178       0     160    0.00     0.0     0.0    0.00    0.00   0.165   0.209   0.228   0.229   0.197   0.186   0.187   0.208   0.190   0.185   0.181   0.199   0.189
 2022 140    20     307     217       3     130      58       7     178       0     160    0.00     0.0     0.0    0.00    0.00   0.160   0.206   0.219   0.220   0.185   0.171   0.171   0.200   0.186   0.183   0.181   0.200   0.190
 2022 141    21     300     210       3     134      58       7     178       0     160    0.00     0.0     0.0    0.00    0.00   0.151   0.202   0.212   0.214   0.178   0.162   0.162   0.195   0.182   0.182   0.180   0.199   0.189
 2022 142    22     295     205       3     136      58       7     178       0     160    0.00     0.0     0.0    0.00    0.00   0.139   0.195   0.208   0.209   0.173   0.155   0.156   0.191   0.181   0.181   0.179   0.199   0.189
 2022 143    23     305     215       3     136      68       7     178       0     160    0.00     0.0     0.0    0.00    0.00   0.294   0.215   0.212   0.210   0.172   0.153   0.154   0.192   0.182   0.180   0.179   0.199   0.189
 2022 144    24     305     216       3     136      71       7     178       0     160    0.00     0.0     0.0    0.00    0.00   0.279   0.224   0.220   0.211   0.171   0.153   0.153   0.192   0.182   0.180   0.178   0.198   0.189
 2022 145    25     298     208       3     138      71       7     178       0     160    0.00     0.0     0.0    0.00    0.00   0.217   0.207   0.209   0.206   0.169   0.151   0.150   0.190   0.180   0.178   0.179   0.199   0.189
 2022 146    26     292     202       3     138      71       7     178       0     160    0.00     0.0     0.0    0.00    0.00   0.185   0.197   0.204   0.204   0.166   0.149   0.148   0.188   0.178   0.177   0.177   0.197   0.187
 2022 147    27     291     201       3     138      71       7     178       0     160    0.00     0.0     0.0    0.00    0.00   0.170   0.196   0.203   0.204   0.166   0.149   0.148   0.188   0.178   0.177   0.177   0.197   0.187
 2022 148    28     290     200       3     138      71       7     178       0     160    0.00     0.0     0.0    0.00    0.00   0.157   0.195   0.203   0.204   0.166   0.149   0.148   0.188   0.178   0.177   0.177   0.197   0.187
 2022 149    29     289     199       3     138      71       7     178       0     160    0.00     0.0     0.0    0.00    0.00   0.145   0.194   0.203   0.203   0.166   0.149   0.148   0.188   0.178   0.177   0.177   0.197   0.187
 2022 150    30     294     205       3     138      77       7     178       0     160    0.00     0.0     0.0    0.00    0.00   0.227   0.204   0.202   0.203   0.166   0.148   0.148   0.188   0.178   0.177   0.177   0.197   0.187
 2022 151    31     291     201       3     138      77       7     178       0     160    0.00     0.0     0.0    0.00    0.00   0.199   0.201   0.202   0.201   0.164   0.147   0.147   0.187   0.177   0.176   0.176   0.196   0.187
 2022 152    32     290     200       3     138      77       7     178       0     160    0.00     0.0     0.0    0.00    0.00   0.182   0.199   0.201   0.201   0.164   0.147   0.147   0.187   0.177   0.176   0.176   0.196   0.187
 2022 153    33     289     199       3     138      77       7     178       0     160    0.00     0.0     0.0    0.00    0.00   0.166   0.197   0.200   0.200   0.164   0.147   0.147   0.187   0.177   0.176   0.176   0.196   0.187
 2022 154    34     288     198       3     138      77       7     178       0     160    0.00     0.0     0.0    0.00    0.00   0.150   0.195   0.199   0.200   0.164   0.147   0.147   0.187   0.177   0.176   0.176   0.196   0.187
 2022 155    35     287     197       3     138      77       7     178       0     160    0.00     0.0     0.0    0.00    0.00   0.135   0.193   0.198   0.200   0.164   0.147   0.147   0.187   0.177   0.176   0.176   0.196   0.187
 2022 156    36     285     196       3     138      77       7     178       0     160    0.00     0.0     0.0    0.00    0.00   0.122   0.191   0.197   0.200   0.164   0.147   0.147   0.187   0.177   0.176   0.176   0.196   0.187
 2022 157    37     285     195       3     138      78       7     178       0     160    0.00     0.0     0.0    0.00    0.00   0.130   0.187   0.194   0.199   0.164   0.147   0.147   0.187   0.177   0.176   0.176   0.196   0.187
 2022 158    38     295     205       3     138      90       7     178       0     160    0.00     0.0     0.0    0.00    0.00   0.300   0.210   0.197   0.197   0.163   0.146   0.146   0.186   0.176   0.175   0.176   0.196   0.186
 2022 159    39     288     198       3     138      90       7     178       0     160    0.00     0.0     0.0    0.00    0.00   0.222   0.197   0.201   0.199   0.160   0.144   0.144   0.184   0.174   0.174   0.174   0.194   0.185
 2022 160    40     284     194       3     138      90       7     178       0     160    0.00     0.0     0.0    0.00    0.00   0.196   0.193   0.195   0.195   0.159   0.143   0.143   0.182   0.173   0.173   0.173   0.193   0.184
 2022 161    41     282     192       3     138      90       7     178       0     160    0.00     0.0     0.0    0.00    0.00   0.175   0.189   0.192   0.194   0.159   0.143   0.143   0.182   0.173   0.173   0.173   0.193   0.184
 2022 162    42     280     190       3     138      90       7     178       0     160    0.00     0.0     0.0    0.00    0.00   0.155   0.184   0.188   0.192   0.158   0.143   0.143   0.182   0.173   0.173   0.173   0.193   0.184
 2022 163    43     278     188       3     138      90       7     178       0     160    0.00     0.0     0.0    0.00    0.00   0.137   0.178   0.183   0.191   0.158   0.143   0.143   0.182   0.173   0.173   0.173   0.193   0.184
 2022 164    44     275     185       3     138      90       7     178       0     160    0.00     0.0     0.0    0.00    0.00   0.117   0.171   0.176   0.188   0.158   0.143   0.143   0.182   0.173   0.173   0.173   0.193   0.184
 2022 165    45     273     183       3     138      90       7     178       0     160    0.00     0.0     0.0    0.00    0.00   0.106   0.164   0.170   0.185   0.157   0.143   0.143   0.182   0.173   0.173   0.173   0.193   0.184
 2022 166    46     271     181       3     138      90       7     178       0     160    0.00     0.0     0.0    0.00    0.00   0.098   0.156   0.163   0.182   0.157   0.143   0.143   0.182   0.173   0.173   0.173   0.193   0.184
 2022 167    47     268     179       3     138      90       7     178       0     160    0.00     0.0     0.0    0.00    0.00   0.091   0.149   0.157   0.179   0.156   0.143   0.143   0.182   0.173   0.173   0.173   0.193   0.184
 2022 168    48     266     176       3     138      90       7     178       0     160    0.00     0.0     0.0    0.00    0.00   0.085   0.139   0.148   0.175   0.154   0.143   0.143   0.182   0.173   0.173   0.173   0.193   0.184
 2022 169    49     263     173       3     138      90       7     178       0     160    0.00     0.0     0.0    0.00    0.00   0.080   0.129   0.139   0.171   0.153   0.143   0.143   0.182   0.173   0.173   0.173   0.193   0.184
 2022 170    50     260     170       3     138      90       7     178       0     160    0.00     0.0     0.0    0.00    0.00   0.075   0.120   0.130   0.167   0.151   0.142   0.143   0.182   0.173   0.173   0.173   0.193   0.184
 2022 171    51     258     168       3     138      90       7     178       0     160    0.00     0.0     0.0    0.00    0.00   0.070   0.113   0.123   0.163   0.150   0.142   0.143   0.182   0.173   0.173   0.173   0.193   0.184
 2022 172    52     256     166       3     138      90       7     178       0     160    0.00     0.0     0.0    0.00    0.00   0.066   0.110   0.117   0.160   0.148   0.141   0.143   0.182   0.173   0.173   0.173   0.193   0.184
 2022 173    53     254     164       3     138      90       7     178       0     160    0.00     0.0     0.0    0.00    0.00   0.063   0.107   0.109   0.156   0.146   0.141   0.143   0.182   0.173   0.173   0.173   0.193   0.184
 2022 174    54     251     161       3     138      90       7     178       0     160    0.00     0.0     0.0    0.00    0.00   0.059   0.103   0.103   0.149   0.143   0.139   0.142   0.182   0.173   0.173   0.173   0.193   0.184
 2022 175    55     249     159       3     138      91       7     178       0     160    0.00     0.0     0.0    0.00    0.00   0.062   0.100   0.100   0.143   0.140   0.138   0.142   0.182   0.173   0.173   0.173   0.193   0.184
 2022 176    56     247     157       3     138      91       7     178       0     160    0.00     0.0     0.0    0.00    0.00   0.059   0.098   0.098   0.136   0.137   0.137   0.141   0.182   0.173   0.173   0.173   0.193   0.184
 2022 177    57     245     155       3     138      91       7     178       0     160    0.00     0.0     0.0    0.00    0.00   0.055   0.097   0.096   0.131   0.134   0.136   0.141   0.182   0.173   0.173   0.173   0.193   0.184
 2022 178    58     243     153       3     138      91       7     178       0     160    0.00     0.0     0.0    0.00    0.00   0.053   0.095   0.094   0.123   0.130   0.134   0.139   0.182   0.173   0.173   0.173   0.193   0.184
 2022 179    59     240     150       3     138      91       7     178       0     160    0.00     0.0     0.0    0.00    0.00   0.050   0.093   0.093   0.115   0.125   0.132   0.138   0.182   0.173   0.173   0.173   0.193   0.184
 2022 180    60     237     147       3     138      91       7     178       0     160    0.00     0.0     0.0    0.00    0.00   0.048   0.092   0.091   0.106   0.120   0.129   0.137   0.181   0.173   0.173   0.173   0.193   0.184
 2022 181    61     235     145       3     138      91       7     178       0     160    0.00     0.0     0.0    0.00    0.00   0.046   0.091   0.090   0.100   0.117   0.127   0.135   0.181   0.173   0.173   0.173   0.193   0.184
 2022 182    62     233     143       3     138      91       7     178       0     160    0.00     0.0     0.0    0.00    0.00   0.044   0.090   0.089   0.096   0.112   0.125   0.134   0.181   0.173   0.173   0.173   0.193   0.184
 2022 183    63     254     164       3     138     117       7     178       0     160    0.00     0.0     0.0    0.00    0.00   0.367   0.171   0.086   0.091   0.104   0.120   0.130   0.179   0.171   0.171   0.172   0.192   0.183
 2022 184    64     255     165       3     138     125       7     178       0     160    0.00     0.0     0.0    0.00    0.00   0.343   0.210   0.101   0.088   0.099   0.117   0.127   0.177   0.170   0.170   0.171   0.191   0.182
 2022 185    65     247     157       3     138     125       7     178       0     160    0.00     0.0     0.0    0.00    0.00   0.241   0.188   0.134   0.086   0.094   0.113   0.124   0.174   0.168   0.169   0.170   0.189   0.181
 2022 186    66     267     177       4     138     154       7     178       0     160    0.00     0.0     0.0    1.34    0.00   0.348   0.300   0.206   0.087   0.090   0.110   0.122   0.172   0.167   0.168   0.169   0.188   0.180
 2022 187    67     265     175       4     138     155       7     178       0     160    0.00     0.0     0.0    0.00    0.00   0.292   0.271   0.238   0.099   0.089   0.109   0.120   0.171   0.166   0.167   0.168   0.188   0.179
 2022 188    68     271     181       4     138     166       7     178       0     160    0.00     0.0     0.0    0.00    0.00   0.360   0.271   0.255   0.115   0.087   0.107   0.119   0.170   0.165   0.166   0.167   0.187   0.179
 2022 189    69     263     173       4     138     166       7     178       0     160    0.00     0.0     0.0    0.00    0.00   0.261   0.229   0.224   0.156   0.085   0.104   0.116   0.168   0.164   0.165   0.166   0.186   0.178
 2022 190    70     255     165       4     138     166       7     178       0     160    0.00     0.0     0.0    0.00    0.00   0.202   0.202   0.203   0.164   0.083   0.101   0.114   0.166   0.163   0.164   0.165   0.185   0.176
 2022 191    71     248     158       4     138     168       7     178       0     160    0.00     0.0     0.0    0.00    0.00   0.186   0.189   0.188   0.155   0.081   0.098   0.111   0.164   0.161   0.162   0.164   0.183   0.175
 2022 192    72     245     155       4     138     168       7     178       0     160    0.00     0.0     0.0    0.00    0.00   0.171   0.180   0.180   0.150   0.080   0.096   0.110   0.163   0.161   0.162   0.164   0.183   0.175
 2022 193    73     242     152       4     138     168       7     178       0     160    0.00     0.0     0.0    0.00    0.00   0.152   0.172   0.173   0.145   0.080   0.095   0.109   0.163   0.161   0.162   0.164   0.183   0.175
 2022 194    74     238     148       4     138     168       7     178       0     160    0.00     0.0     0.0    0.00    0.00   0.139   0.164   0.165   0.140   0.079   0.093   0.107   0.162   0.161   0.162   0.164   0.183   0.175
 2022 195    75     234     144       4     138     168       7     178       0     160    0.00     0.0     0.0    0.00    0.00   0.119   0.153   0.155   0.134   0.079   0.091   0.106   0.162   0.160   0.162   0.164   0.183   0.175
 2022 196    76     231     141       4     138     168       7     178       0     160    0.00     0.0     0.0    0.00    0.00   0.108   0.145   0.147   0.128   0.078   0.089   0.104   0.161   0.160   0.162   0.164   0.183   0.175
 2022 197    77     228     138       4     138     168       7     178       0     160    0.00     0.0     0.0    0.00    0.00   0.100   0.138   0.140   0.124   0.078   0.088   0.103   0.161   0.160   0.162   0.164   0.183   0.175
 2022 198    78     225     135       4     138     168       7     178       0     160    0.00     0.0     0.0    0.00    0.00   0.093   0.129   0.132   0.119   0.078   0.086   0.102   0.160   0.160   0.162   0.164   0.183   0.175
 2022 199    79     221     131       4     138     168       7     178       0     160    0.00     0.0     0.0    0.00    0.00   0.086   0.118   0.122   0.112   0.077   0.084   0.100   0.159   0.159   0.162   0.164   0.183   0.175
 2022 200    80     218     128       4     138     168       7     178       0     160    0.00     0.0     0.0    0.00    0.00   0.081   0.111   0.113   0.106   0.077   0.082   0.098   0.159   0.159   0.162   0.164   0.183   0.175
 2022 201    81     215     125       4     138     168       7     178       0     160    0.00     0.0     0.0    0.00    0.00   0.076   0.106   0.105   0.099   0.076   0.080   0.096   0.158   0.158   0.162   0.164   0.183   0.175
 2022 202    82     225     135       4     138     186       7     178       0     160    0.00     0.0     0.0    0.00    0.00   0.317   0.136   0.097   0.091   0.074   0.077   0.091   0.154   0.156   0.161   0.162   0.182   0.174
 2022 203    83     218     128       4     138     186       7     178       0     160    0.00     0.0     0.0    0.00    0.00   0.224   0.141   0.093   0.088   0.072   0.075   0.087   0.151   0.154   0.159   0.161   0.180   0.173
 2022 204    84     212     122       4     138     186       7     178       0     160    0.00     0.0     0.0    0.00    0.00   0.177   0.128   0.089   0.085   0.071   0.073   0.084   0.148   0.152   0.158   0.160   0.179   0.172
 2022 205    85     209     119       4     138     186       7     178       0     160    0.00     0.0     0.0    0.00    0.00   0.153   0.117   0.089   0.084   0.071   0.072   0.082   0.148   0.151   0.158   0.160   0.179   0.172
 2022 206    86     213     123       4     138     191       7     178       0     160    0.00     0.0     0.0    0.00    0.00   0.220   0.125   0.089   0.084   0.071   0.072   0.082   0.147   0.151   0.158   0.160   0.179   0.172
 2022 207    87     209     119       4     138     191       7     178       0     160    0.00     0.0     0.0    0.00    0.00   0.189   0.120   0.087   0.082   0.070   0.071   0.081   0.146   0.150   0.157   0.159   0.178   0.171
 2022 208    88     229     139       4     138     215       7     178       0     160    0.00     0.0     0.0    0.12    0.00   0.359   0.229   0.113   0.081   0.069   0.070   0.079   0.144   0.148   0.156   0.158   0.177   0.170
 2022 209    89     225     135       4     138     216       7     178       0     160    0.00     0.0     0.0    0.00    0.00   0.276   0.226   0.133   0.080   0.068   0.070   0.078   0.142   0.147   0.155   0.157   0.177   0.169
 2022 210    90     221     131       4     138     216       7     178       0     160    0.00     0.0     0.0    0.00    0.00   0.224   0.208   0.155   0.079   0.068   0.069   0.077   0.141   0.146   0.154   0.157   0.176   0.169
 2022 211    91     215     125       4     138     216       7     178       0     160    0.00     0.0     0.0    0.00    0.00   0.181   0.191   0.149   0.077   0.067   0.068   0.076   0.139   0.144   0.153   0.155   0.175   0.168
 2022 212    92     212     122       4     138     216       7     178       0     160    0.00     0.0     0.0    0.00    0.00   0.161   0.184   0.143   0.077   0.066   0.068   0.076   0.138   0.144   0.153   0.155   0.175   0.168
 2022 213    93     209     120       4     138     216       7     178       0     160    0.00     0.0     0.0    0.00    0.00   0.141   0.176   0.135   0.077   0.066   0.067   0.075   0.138   0.143   0.153   0.155   0.175   0.168
 2022 214    94     208     118       4     138     217       7     178       0     160    0.00     0.0     0.0    0.00    0.00   0.152   0.167   0.127   0.076   0.066   0.067   0.075   0.137   0.143   0.153   0.155   0.175   0.168
 2022 215    95     206     116       4     138     217       7     178       0     160    0.00     0.0     0.0    0.00    0.00   0.134   0.160   0.120   0.076   0.066   0.067   0.074   0.136   0.143   0.153   0.155   0.175   0.168
 2022 216    96     204     114       4     138     217       7     178       0     160    0.00     0.0     0.0    0.00    0.00   0.118   0.153   0.114   0.076   0.066   0.067   0.074   0.136   0.142   0.152   0.155   0.175   0.167
 2022 217    97     201     111       4     138     217       7     178       0     160    0.00     0.0     0.0    0.00    0.00   0.107   0.143   0.107   0.076   0.066   0.066   0.073   0.135   0.142   0.152   0.155   0.174   0.167
 2022 218    98     199     109       4     138     217       7     178       0     160    0.00     0.0     0.0    0.00    0.00   0.099   0.135   0.104   0.075   0.066   0.066   0.073   0.134   0.141   0.152   0.155   0.174   0.167
 2022 219    99     199     109       4     138     218       7     178       0     160    0.00     0.0     0.0    0.00    0.00   0.107   0.132   0.104   0.075   0.066   0.066   0.073   0.134   0.141   0.152   0.155   0.174   0.167
 2022 220   100     198     108       4     138     218       7     178       0     160    0.00     0.0     0.0    0.00    0.00   0.099   0.123   0.102   0.075   0.065   0.066   0.073   0.133   0.141   0.152   0.155   0.174   0.167
 2022 221   101     196     106       4     138     218       7     178       0     160    0.00     0.0     0.0    0.00    0.00   0.092   0.113   0.100   0.075   0.065   0.066   0.072   0.132   0.140   0.152   0.155   0.174   0.167
 2022 222   102     194     104       4     138     218       7     178       0     160    0.00     0.0     0.0    0.00    0.00   0.086   0.106   0.097   0.074   0.065   0.065   0.071   0.130   0.139   0.152   0.155   0.174   0.167
 2022 223   103     192     102       4     138     218       7     178       0     160    0.00     0.0     0.0    0.00    0.00   0.080   0.101   0.094   0.074   0.065   0.065   0.071   0.128   0.138   0.152   0.155   0.174   0.167
 2022 224   104     190     100       4     138     218       7     178       0     160    0.00     0.0     0.0    0.00    0.00   0.075   0.097   0.092   0.073   0.064   0.064   0.070   0.126   0.137   0.151   0.155   0.174   0.167
 2022 225   105     189      99       4     138     218       7     178       0     160    0.00     0.0     0.0    0.00    0.00   0.071   0.095   0.090   0.073   0.064   0.064   0.069   0.123   0.135   0.151   0.155   0.174   0.167
 2022 226   106     187      98       4     138     218       7     178       0     160    0.00     0.0     0.0    0.00    0.00   0.067   0.093   0.089   0.072   0.064   0.063   0.068   0.121   0.134   0.150   0.155   0.174   0.167
 2022 227   107     198     108       4     138     230       7     178       0     160    0.00     0.0     0.0    0.00    0.00   0.252   0.109   0.088   0.072   0.064   0.063   0.068   0.119   0.133   0.150   0.154   0.174   0.167
 2022 228   108     196     106       4     138     230       7     178       0     160    0.00     0.0     0.0    0.00    0.00   0.225   0.118   0.087   0.072   0.063   0.062   0.067   0.118   0.132   0.149   0.154   0.174   0.167
 2022 229   109     193     103       4     138     230       7     178       0     160    0.00     0.0     0.0    0.00    0.00   0.191   0.116   0.085   0.070   0.062   0.062   0.067   0.117   0.131   0.148   0.153   0.173   0.166
 2022 230   110     191     101       4     138     230       7     178       0     160    0.00     0.0     0.0    0.00    0.00   0.170   0.111   0.085   0.070   0.062   0.062   0.066   0.116   0.131   0.148   0.153   0.173   0.166
 2022 231   111     190     100       4     138     230       7     178       0     160    0.00     0.0     0.0    0.00    0.00   0.151   0.108   0.084   0.070   0.062   0.061   0.066   0.115   0.130   0.148   0.153   0.173   0.166
 2022 232   112     188      98       4     138     230       7     178       0     160    0.00     0.0     0.0    0.00    0.00   0.132   0.106   0.084   0.070   0.062   0.061   0.066   0.115   0.130   0.148   0.153   0.173   0.166
 2022 233   113     187      97       4     138     230       7     178       0     160    0.00     0.0     0.0    0.00    0.00   0.115   0.104   0.084   0.070   0.062   0.061   0.066   0.114   0.129   0.148   0.153   0.173   0.166
 2022 234   114     185      95       4     138     230       7     178       0     160    0.00     0.0     0.0    0.00    0.00   0.104   0.101   0.083   0.070   0.062   0.061   0.066   0.112   0.128   0.148   0.152   0.173   0.166
 2022 235   115     184      94       4     138     230       7     178       0     160    0.00     0.0     0.0    0.00    0.00   0.096   0.099   0.083   0.069   0.062   0.061   0.065   0.111   0.127   0.147   0.152   0.173   0.166
 2022 236   116     183      93       4     138     230       7     178       0     160    0.00     0.0     0.0    0.00    0.00   0.089   0.097   0.082   0.069   0.062   0.060   0.065   0.109   0.126   0.147   0.152   0.173   0.166
 2022 237   117     182      92       4     138     230       7     178       0     160    0.00     0.0     0.0    0.00    0.00   0.083   0.095   0.082   0.069   0.061   0.060   0.065   0.107   0.125   0.147   0.152   0.173   0.166
 2022 238   118     181      91       4     138     230       7     178       0     160    0.00     0.0     0.0    0.00    0.00   0.078   0.094   0.081   0.069   0.061   0.060   0.064   0.106   0.125   0.146   0.151   0.173   0.166
 2022 239   119     180      90       4     138     230       7     178       0     160    0.00     0.0     0.0    0.00    0.00   0.073   0.093   0.081   0.069   0.061   0.060   0.064   0.104   0.124   0.146   0.151   0.173   0.166
 2022 240   120     179      89       4     138     230       7     178       0     160    0.00     0.0     0.0    0.00    0.00   0.069   0.091   0.080   0.068   0.061   0.060   0.064   0.102   0.122   0.146   0.151   0.173   0.166
 2022 241   121     178      88       4     138     230       7     178       0     160    0.00     0.0     0.0    0.00    0.00   0.065   0.090   0.080   0.068   0.061   0.059   0.064   0.101   0.121   0.145   0.151   0.173   0.166
 2022 242   122     177      87       4     138     230       7     178       0     160    0.00     0.0     0.0    0.00    0.00   0.061   0.089   0.080   0.068   0.061   0.059   0.063   0.099   0.120   0.145   0.150   0.173   0.166
 2022 243   123     178      88       4     138     232       7     178       0     160    0.00     0.0     0.0    0.00    0.00   0.087   0.088   0.079   0.068   0.061   0.059   0.063   0.098   0.120   0.145   0.150   0.173   0.166