*MODEL INPUT FILE            A     1     1     1     1     0
*FILES              
MODEL          MZCER048
FILEX          UNLI2201.MZX                                                                                 
FILEA          UNLI2201.MZA                                                                                 
FILET          UNLI2201.MZT                                                                                 
SPECIES        MZCER048.SPE C:\DSSAT48\GENOTYPE\                                                            
ECOTYPE        MZCER048.ECO C:\DSSAT48\GENOTYPE\                                                            
CULTIVAR       MZCER048.CUL C:\DSSAT48\GENOTYPE\                                                            
PESTS          MZCER048.PST C:\DSSAT48\PEST\                                                                
SOILS          NE.SOL                                                                                       
WEATHERW       NENP2201.WTH                                                                                 
OUTPUT         UNLI2201
*SIMULATION CONTROL 
                   1     1     S 2022121  2150 UNL                      
                   Y     Y     N     N     N     N     N     N     W
                   M     M     E     R     S     R     R     1     G     S     2     D     0
                   R     R     D     R     M
                   Y     Y     A     1     Y     Y     Y     Y     Y     Y     A     Y     Y
!AUTOMATIC MANAGEM  
                   -99     -99   40.  100.   30.   40.   10.
                180.   50.  100. GS006 IR004 230.0 1.000
                100.    1.   20. FE001 GS000
                  0. 96137  100.
                     0     -99  100.    0.
*EXP.DETAILS        
  1UNLI2201 MZ IRRIGATED MAIZE PRODUCTION                                  
*TREATMENTS         
  1 0 0 0 silt_loam_13in_irr       
*CULTIVARS          
   MZ IB1066 PIO 3489        
*FIELDS             
   UCCO0001 NENP2201   0.0    0. DR000    0. 100.0 00000 SL     200. NENP230001-99.00 -99.0
      0.0000000000    0.0000000000     0.000               1.0  100.   1.0   0.0   -99   -99
*INITIAL CONDITIONS 
               0     0     0  1.00  1.00 -99.0     0  0.00  0.00  100.    0.
      5. 0.200   0.0   0.0
     15. 0.207   0.0   0.0
     23. 0.210   0.0   0.0
     38. 0.210   0.0   0.0
     53. 0.170   0.0   0.0
     61. 0.150   0.0   0.0
     69. 0.150   0.0   0.0
     84. 0.190   0.0   0.0
     99. 0.180   0.0   0.0
    114. 0.180   0.0   0.0
    130. 0.180   0.0   0.0
    145. 0.200   0.0   0.0
    160. 0.190   0.0   0.0
*PLANTING DETAILS   
   2022129     -99   8.0   8.0     S     R   30.    0.   5.0  -99.  -99. -99.0 -99.0 -99.0
*IRRIGATION         
   1.000   30.   50.  100. GS000 IR001  10.0
   2022129 IR001   0.0
   2022129 IR001  25.4
   2022130 IR001  25.4
   2022131 IR001  25.4
   2022132 IR001  25.4
   2022133 IR001  25.4
   2022134 IR001  25.4
   2022135 IR001  25.4
   2022143 IR001  25.4
   2022144 IR001  25.4
   2022145 IR001  25.4
   2022146 IR001  25.4
   2022147 IR001  25.4
   2022148 IR001  25.4
   2022149 IR001  25.4
*FERTILIZERS        
     22129 FE001 AP001   10.    0.  -99.  -99.  -99.  -99.   -99
*RESIDUES           
*CHEMICALS          
*TILLAGE            
*ENVIRONMENT        
*HARVEST            
*SOIL               
 NENP230001  TAPS        SL     200.   Cozad silt Loam                                 
 NP          US           41.100 100.760 SL                                                
 BN     0.13   6.0  0.40   73.  1.00  1.00 IB001 IB001 IB001 -99  
    5.       0.080 0.200 0.494 1.000  2.59  1.12 1.610   8.0  36.0 -99.0  -9.0  6.40-99.00 17.00-99.00
   15.       0.073 0.207 0.495 1.000  1.70  1.32 1.218   8.7  40.2 -99.0  -9.0  6.40-99.00 17.00-99.00
   23.       0.070 0.210 0.495 1.000  1.32  1.41 1.050   9.0  42.0 -99.0  -9.0  6.40-99.00 17.00-99.00
   38.       0.060 0.210 0.514 0.543 0.680  1.33 0.840   8.0  51.0 -99.0  -9.0  6.40-99.00 17.60-99.00
   53.       0.050 0.170 0.475 0.403  2.59  1.29 0.710   7.0  37.0 -99.0  -9.0  6.70-99.00 15.20-99.00
   61.       0.040 0.150 0.479 0.295  2.59  1.21 0.760   5.0  34.0 -99.0  -9.0  7.00-99.00 11.70-99.00
   69.       0.040 0.150 0.479 0.295  2.59  1.21 0.760   5.0  34.0 -99.0  -9.0  7.00-99.00 11.70-99.00
   84.       0.050 0.190 0.518 0.217  2.59  1.19 0.890   5.0  47.0 -99.0  -9.0  7.00-99.00 11.70-99.00
   99.       0.040 0.180 0.518 0.160  2.59  1.21 0.790   5.0  48.0 -99.0  -9.0  7.00-99.00 11.70-99.00
  114.       0.060 0.180 0.469 0.119  2.59  1.22 0.550   9.0  39.0 -99.0  -9.0  7.00-99.00 11.70-99.00
  130.       0.060 0.180 0.480 0.087  1.32  1.28 0.490   8.0  42.0 -99.0  -9.0  7.00-99.00 11.70-99.00
  145.       0.060 0.200 0.499 0.064  1.32  1.26 0.450   8.0  49.0 -99.0  -9.0  7.00-99.00 11.70-99.00
  160.       0.060 0.190 0.488 0.047  1.32  1.29 0.400   8.0  45.0 -99.0  -9.0  7.00-99.00 11.70-99.00
                    
    5.-99.00 -99.0 -99.0 -99.0 -99.0 -99.0 -99.0 -99.0 -99.0 -99.0-99.00 -99.0 -99.0 -99.0 -99.0 -99.0  -99.  -99.
   15.-99.00 -99.0 -99.0 -99.0 -99.0 -99.0 -99.0 -99.0 -99.0 -99.0-99.00 -99.0 -99.0 -99.0 -99.0 -99.0  -99.  -99.
   23.-99.00 -99.0 -99.0 -99.0 -99.0 -99.0 -99.0 -99.0 -99.0 -99.0-99.00 -99.0 -99.0 -99.0 -99.0 -99.0  -99.  -99.
   38.-99.00 -99.0 -99.0 -99.0 -99.0 -99.0 -99.0 -99.0 -99.0 -99.0-99.00 -99.0 -99.0 -99.0 -99.0 -99.0  -99.  -99.
   53.-99.00 -99.0 -99.0 -99.0 -99.0 -99.0 -99.0 -99.0 -99.0 -99.0-99.00 -99.0 -99.0 -99.0 -99.0 -99.0  -99.  -99.
   61.-99.00 -99.0 -99.0 -99.0 -99.0 -99.0 -99.0 -99.0 -99.0 -99.0-99.00 -99.0 -99.0 -99.0 -99.0 -99.0  -99.  -99.
   69.-99.00 -99.0 -99.0 -99.0 -99.0 -99.0 -99.0 -99.0 -99.0 -99.0-99.00 -99.0 -99.0 -99.0 -99.0 -99.0  -99.  -99.
   84.-99.00 -99.0 -99.0 -99.0 -99.0 -99.0 -99.0 -99.0 -99.0 -99.0-99.00 -99.0 -99.0 -99.0 -99.0 -99.0  -99.  -99.
   99.-99.00 -99.0 -99.0 -99.0 -99.0 -99.0 -99.0 -99.0 -99.0 -99.0-99.00 -99.0 -99.0 -99.0 -99.0 -99.0  -99.  -99.
  114.-99.00 -99.0 -99.0 -99.0 -99.0 -99.0 -99.0 -99.0 -99.0 -99.0-99.00 -99.0 -99.0 -99.0 -99.0 -99.0  -99.  -99.
  130.-99.00 -99.0 -99.0 -99.0 -99.0 -99.0 -99.0 -99.0 -99.0 -99.0-99.00 -99.0 -99.0 -99.0 -99.0 -99.0  -99.  -99.
  145.-99.00 -99.0 -99.0 -99.0 -99.0 -99.0 -99.0 -99.0 -99.0 -99.0-99.00 -99.0 -99.0 -99.0 -99.0 -99.0  -99.  -99.
  160.-99.00 -99.0 -99.0 -99.0 -99.0 -99.0 -99.0 -99.0 -99.0 -99.0-99.00 -99.0 -99.0 -99.0 -99.0 -99.0  -99.  -99.
                    
    5.-99.00-99.00-99.00-99.00
   15.-99.00-99.00-99.00-99.00
   23.-99.00-99.00-99.00-99.00
   38.-99.00-99.00-99.00-99.00
   53.-99.00-99.00-99.00-99.00
   61.-99.00-99.00-99.00-99.00
   69.-99.00-99.00-99.00-99.00
   84.-99.00-99.00-99.00-99.00
   99.-99.00-99.00-99.00-99.00
  114.-99.00-99.00-99.00-99.00
  130.-99.00-99.00-99.00-99.00
  145.-99.00-99.00-99.00-99.00
  160.-99.00-99.00-99.00-99.00
*CULTIVAR           
IB1066 PIO 3489         IB0001  225.0 0.600 895.0 875.0  8.80 48.00
