*GROWTH ASPECTS OUTPUT FILE

*DSSAT Cropping System Model Ver. 4.8.2.000 -release  FEB 07, 2025 20:08:35

*RUN   1        : silt_loam_13in_irr        MZCER048 UNLI2201    1
 MODEL          : MZCER048 - Maize
 EXPERIMENT     : UNLI2201 MZ IRRIGATED MAIZE PRODUCTION
 DATA PATH      :
 TREATMENT  1   : silt_loam_13in_irr        MZCER048
  
!                                                                                                                                                                                                                                      Root Dens. (cm/cm3) by soil depth (cm):
!                                                                                                                                                                                                                                      0-5    5-15   15-23   23-38   38-53   53-61   61-69   69-84   84-99  99-160
@YEAR DOY   DAS   DAP   L#SD   GSTD   LAID   LWAD   SWAD   GWAD   RWAD   VWAD   CWAD   G#AD   GWGD   HIAD   PWAD   P#AD   WSPD   WSGD   NSTD   EWSD  PST1A  PST2A   KSTD   LN%D   SH%D   HIPD   PWDD   PWTD     SLAD   CHTD   CWID   RDPD    RL1D    RL2D    RL3D    RL4D    RL5D    RL6D    RL7D    RL8D    RL9D   RL10D   CDAD   LDAD   SDAD   SNW0C   SNW1C  DTTD
 2022 129     9     0    0.0      0   0.00      0      0      0      0      0      0      0    0.0  0.000      0      0  0.000  0.000  0.000  0.000  0.000  0.000  0.000   0.00   0.00   0.00      0      0      0.0   0.00   0.00   0.05    0.00    0.00    0.00    0.00    0.00    0.00    0.00    0.00    0.00    0.00      0      0      0       0       0 10.11
 2022 130    10     1    0.0      0   0.00      0      0      0      0      0      0      0    0.0  0.000      0      0  0.000  0.000  0.000  0.000  0.000  0.000  0.000   0.00   0.00   0.00      0      0      0.0   0.00   0.00   0.06    0.00    0.00    0.00    0.00    0.00    0.00    0.00    0.00    0.00    0.00      0      0      0       0       0  9.87
 2022 131    11     2    0.0      0   0.00      0      0      0      0      0      0      0    0.0  0.000      0      0  0.000  0.000  0.000  0.000  0.000  0.000  0.000   0.00   0.00   0.00      0      0      0.0   0.00   0.00   0.09    0.00    0.00    0.00    0.00    0.00    0.00    0.00    0.00    0.00    0.00      0      0      0       0       0 16.47
 2022 132    12     3    0.0      0   0.00      0      0      0      0      0      0      0    0.0  0.000      0      0  0.000  0.000  0.000  0.000  0.000  0.000  0.000   0.00   0.00   0.00      0      0      0.0   0.00   0.00   0.11    0.00    0.00    0.00    0.00    0.00    0.00    0.00    0.00    0.00    0.00      0      0      0       0       0 14.94
 2022 133    13     4    0.0      0   0.00      0      0      0      0      0      0      0    0.0  0.000      0      0  0.000  0.000  0.000  0.000  0.000  0.000  0.000   0.00   0.00   0.00      0      0      0.0   0.00   0.00   0.13    0.00    0.00    0.00    0.00    0.00    0.00    0.00    0.00    0.00    0.00      0      0      0       0       0  9.12
 2022 134    14     5    0.0      0   0.00      0      0      0      0      0      0      0    0.0  0.000      0      0  0.000  0.000  0.000  0.000  0.000  0.000  0.000   0.00   0.00   0.00      0      0      0.0   0.00   0.00   0.14    0.00    0.00    0.00    0.00    0.00    0.00    0.00    0.00    0.00    0.00      0      0      0       0       0  8.88
 2022 135    15     6    0.0      0   0.00      0      0      0      0      0      0      0    0.0  0.000      0      0  0.000  0.000  0.000  0.000  0.000  0.000  0.000   0.00   0.00   0.00      0      0      0.0   0.00   0.00   0.15    0.00    0.00    0.00    0.00    0.00    0.00    0.00    0.00    0.00    0.00      0      0      0       0       0  9.67
 2022 136    16     7    0.0      0   0.00      0      0      0      0      0      0      0    0.0  0.000      0      0  0.000  0.000  0.000  0.000  0.000  0.000  0.000   0.00   0.00   0.00      0      0      0.0   0.00   0.00   0.17    0.00    0.00    0.00    0.00    0.00    0.00    0.00    0.00    0.00    0.00      0      0      0       0       0 12.79
 2022 137    17     8    1.0      1   0.00     16     16      0     16     32     32      0    0.0  0.000      0      0  0.000  0.000  0.012  0.000  0.000  0.000  0.000   4.40   0.00   0.00      0      0     23.0   0.00   0.00   0.19    0.32    0.16    0.06    0.00    0.00    0.00    0.00    0.00    0.00    0.00      0      0      0       0       0 15.27
 2022 138    18     9    2.0      1   0.01     16     16      0     17     32     32      0    0.0  0.000      0      0  0.000  0.000  0.011  0.000  0.000  0.000  0.000   4.40   0.00   0.00      0      0     42.5   0.00   0.00   0.20    0.32    0.17    0.06    0.00    0.00    0.00    0.00    0.00    0.00    0.00      0      0      0       0       0 14.32
 2022 139    19    10    2.0      1   0.01     16     16      0     18     32     32      0    0.0  0.000      0      0  0.000  0.000  0.005  0.000  0.000  0.000  0.000   4.40   0.00   0.00      0      0     64.2   0.00   0.00   0.22    0.33    0.17    0.07    0.00    0.00    0.00    0.00    0.00    0.00    0.00      0      0      0       0       0 14.14
 2022 140    20    11    2.0      1   0.01     16     16      0     18     32     32      0    0.0  0.000      0      0  0.000  0.000  0.005  0.000  0.000  0.000  0.000   4.40   0.00   0.00      0      0     66.3   0.00   0.00   0.22    0.33    0.18    0.07    0.00    0.00    0.00    0.00    0.00    0.00    0.00      0      0      0       0       0  1.45
 2022 141    21    12    2.0      1   0.01     16     16      0     18     32     32      0    0.0  0.000      0      0  0.000  0.000  0.004  0.000  0.000  0.000  0.000   4.40   0.00   0.00      0      0     38.3   0.00   0.00   0.22    0.34    0.18    0.07    0.00    0.00    0.00    0.00    0.00    0.00    0.00      0      0      0       0       0  1.03
 2022 142    22    13    2.0      1   0.00     16     16      0     19     32     32      0    0.0  0.000      0      0  0.000  0.000  0.003  0.000  0.000  0.000  0.000   4.40   0.00   0.00      0      0      5.7   0.00   0.00   0.22    0.34    0.18    0.08    0.00    0.00    0.00    0.00    0.00    0.00    0.00      0      0      0       0       0  2.61
 2022 143    23    14    2.0      1   0.00     16     16      0     19     32     32      0    0.0  0.000      0      0  0.000  0.000  0.003  0.000  0.000  0.000  0.000   4.40   0.00   0.00      0      0      8.4   0.00   0.00   0.22    0.34    0.18    0.08    0.00    0.00    0.00    0.00    0.00    0.00    0.00      0      0      0       0       0  1.70
 2022 144    24    15    3.0      1   0.00     16     16      0     19     32     32      0    0.0  0.000      0      0  0.000  0.000  0.002  0.000  0.000  0.000  0.000   4.40   0.00   0.00      0      0     11.4   0.00   0.00   0.23    0.33    0.18    0.08    0.00    0.00    0.00    0.00    0.00    0.00    0.00      0      0      0       0       0  1.94
 2022 145    25    16    3.0      1   0.00     16     16      0     19     32     32      0    0.0  0.000      0      0  0.000  0.000  0.000  0.000  0.000  0.000  0.000   4.40   0.00   0.00      0      0     22.5   0.00   0.00   0.23    0.34    0.18    0.08    0.00    0.00    0.00    0.00    0.00    0.00    0.00      0      0      0       0       0  6.68
 2022 146    26    17    3.0      1   0.01     16     16      0     20     32     32      0    0.0  0.000      0      0  0.000  0.000  0.000  0.000  0.000  0.000  0.000   4.40   0.00   0.00      0      0     39.1   0.00   0.00   0.24    0.34    0.19    0.08    0.00    0.00    0.00    0.00    0.00    0.00    0.00      0      0      0       0       0 10.56
 2022 147    27    18    3.0      1   0.01     16     16      0     21     32     32      0    0.0  0.000      0      0  0.000  0.000  0.000  0.000  0.000  0.000  0.000   4.40   0.00   0.00      0      0     68.1   0.00   0.00   0.25    0.35    0.20    0.09    0.00    0.00    0.00    0.00    0.00    0.00    0.00      0      0      0       0       0 14.98
 2022 148    28    19    4.0      1   0.03     16     16      0     23     32     32      0    0.0  0.000      0      0  0.000  0.000  0.000  0.000  0.000  0.000  0.000   4.40   0.00   0.00      0      0    165.4   0.01   0.00   0.26    0.36    0.21    0.11    0.00    0.00    0.00    0.00    0.00    0.00    0.00      0      0      0       0       0 15.07
 2022 149    29    20    4.0      1   0.04     16     16      0     27     32     32      0    0.0  0.000      0      0  0.000  0.000  0.000  0.000  0.000  0.000  0.000   4.40   0.00   0.00      0      0    274.8   0.02   0.00   0.27    0.40    0.25    0.14    0.01    0.00    0.00    0.00    0.00    0.00    0.00      0      0      0       0       0 14.83
 2022 150    30    21    4.0      1   0.05     19     16      0     31     35     35      0    0.0  0.000      0      0  0.000  0.000  0.000  0.000  0.000  0.000  0.000   4.02   0.00   0.00      0      0    277.3   0.02   0.00   0.28    0.43    0.28    0.17    0.01    0.00    0.00    0.00    0.00    0.00    0.00      0      0      0       0       0  7.12
 2022 151    31    22    4.0      1   0.06     23     16      0     36     39     39      0    0.0  0.000      0      0  0.000  0.000  0.000  0.000  0.000  0.000  0.000   3.65   0.00   0.00      0      0    275.2   0.03   0.00   0.28    0.46    0.31    0.21    0.02    0.00    0.00    0.00    0.00    0.00    0.00      0      0      0       0       0  7.11
 2022 152    32    23    5.0      1   0.07     26     16      0     44     42     42      0    0.0  0.000      0      0  0.000  0.000  0.018  0.000  0.000  0.000  0.000   3.36   0.00   0.00      0      0    271.6   0.03   0.00   0.29    0.51    0.37    0.26    0.03    0.00    0.00    0.00    0.00    0.00    0.00      0      0      0       0       0  7.28
 2022 153    33    24    5.0      1   0.08     32     16      0     53     48     48      0    0.0  0.000      0      0  0.000  0.000  0.058  0.000  0.000  0.000  0.000   3.07   0.00   0.00      0      0    264.9   0.04   0.00   0.29    0.58    0.44    0.34    0.05    0.00    0.00    0.00    0.00    0.00    0.00      0      0      0       0       0  8.55
 2022 154    34    25    5.0      1   0.10     39     16      0     64     55     55      0    0.0  0.000      0      0  0.000  0.000  0.090  0.000  0.000  0.000  0.000   2.78   0.00   0.00      0      0    257.0   0.04   0.00   0.30    0.66    0.51    0.41    0.07    0.00    0.00    0.00    0.00    0.00    0.00      0      0      0       0       1 10.74
 2022 155    35    26    5.0      1   0.12     50     16      0     75     66     66      0    0.0  0.000      0      0  0.000  0.000  0.117  0.000  0.000  0.000  0.000   2.45   0.00   0.00      0      0    246.4   0.05   0.00   0.31    0.74    0.59    0.49    0.09    0.00    0.00    0.00    0.00    0.00    0.00      0      0      0       0       1 14.99
 2022 156    36    27    6.0      1   0.15     63     16      0     84     79     79      0    0.0  0.000      0      0  0.000  0.000  0.144  0.000  0.000  0.000  0.000   2.23   0.00   0.00      0      0    236.1   0.06   0.00   0.32    0.80    0.66    0.56    0.11    0.00    0.00    0.00    0.00    0.00    0.00      0      0      0       0       1 14.32
 2022 157    37    28    6.0      1   0.18     78     16      0    101     94     94      0    0.0  0.000      0      0  0.000  0.000  0.183  0.000  0.000  0.000  0.000   2.00   0.00   0.00      0      0    225.0   0.08   0.00   0.34    0.91    0.77    0.67    0.15    0.00    0.00    0.00    0.00    0.00    0.00      0      0      0       0       2 15.48
 2022 158    38    29    6.0      1   0.19     89     16      0    104    105    105      0    0.0  0.000      0      0  0.000  0.000  0.246  0.000  0.000  0.000  0.000   1.97   0.00   0.00      0      0    216.0   0.08   0.00   0.35    0.93    0.79    0.69    0.16    0.00    0.00    0.00    0.00    0.00    0.00      0      0      0       0       2  9.77
 2022 159    39    30    6.0      1   0.21    103     16      0    125    119    119      0    0.0  0.000      0      0  0.000  0.000  0.322  0.000  0.000  0.000  0.000   1.85   0.00   0.00      0      0    206.6   0.09   0.00   0.37    1.06    0.92    0.82    0.23    0.00    0.00    0.00    0.00    0.00    0.00      0      0      0       0       3 11.83
 2022 160    40    31    7.0      2   0.22    102     16      0    143    118    118      0    0.0  0.000      0      0  0.000  0.000  0.349  0.000  0.000  0.000  0.000   2.01   0.00   0.00      0      0    216.3   0.09   0.00   0.39    1.17    1.03    0.93    0.29    0.00    0.00    0.00    0.00    0.00    0.00      0      0      0       0       3 13.73
 2022 161    41    32    7.0      2   0.23    110     16      0    163    126    126      0    0.0  0.000      0      0  0.000  0.000  0.399  0.000  0.000  0.000  0.000   2.00   0.00   0.00      0      0    208.3   0.10   0.00   0.41    1.30    1.15    1.06    0.36    0.01    0.00    0.00    0.00    0.00    0.00      0      0      0       0       4 15.26
 2022 162    42    33    7.0      2   0.25    124     16      0    186    140    140      0    0.0  0.000      0      0  0.000  0.000  0.328  0.000  0.000  0.000  0.000   1.90   0.00   0.00      0      0    201.1   0.11   0.00   0.43    1.43    1.29    1.19    0.43    0.03    0.00    0.00    0.00    0.00    0.00      0      0      0       0       5 19.67
 2022 163    43    34    8.0      2   0.27    141     16      0    209    157    157      0    0.0  0.000      0      0  0.000  0.000  0.330  0.000  0.000  0.000  0.000   1.79   0.00   0.00      0      0    194.4   0.12   0.00   0.46    1.56    1.42    1.32    0.51    0.06    0.00    0.00    0.00    0.00    0.00      0      0      0       0       6 20.59
 2022 164    44    35    8.0      2   0.30    161     16      0    232    177    177      0    0.0  0.000      0      0  0.000  0.000  0.361  0.000  0.000  0.000  0.000   1.71   0.00   0.00      0      0    187.8   0.13   0.00   0.49    1.68    1.54    1.45    0.58    0.09    0.00    0.00    0.00    0.00    0.00      0      0      0       0       7 23.20
 2022 165    45    36    9.0      2   0.32    177     16      0    258    193    193      0    0.0  0.000      0      0  0.000  0.000  0.383  0.000  0.000  0.000  0.000   1.70   0.00   0.00      0      0    181.6   0.14   0.00   0.51    1.82    1.68    1.59    0.65    0.14    0.00    0.00    0.00    0.00    0.00      0      0      0       0       8 17.50
 2022 166    46    37    9.0      2   0.34    193     16      0    288    209    209      0    0.0  0.000      0      0  0.000  0.000  0.404  0.000  0.000  0.000  0.000   1.70   0.00   0.00      0      0    175.6   0.14   0.00   0.53    1.97    1.83    1.74    0.74    0.21    0.00    0.00    0.00    0.00    0.00      0      0      0       0       9 16.47
 2022 167    47    38    9.0      3   0.35    209     16      0    320    225    225      0    0.0  0.000      0      0  0.000  0.000  0.401  0.000  0.000  0.000  0.000   1.68   0.00   0.00      0      0    167.9   0.15   0.00   0.55    2.13    2.00    1.90    0.83    0.28    0.01    0.00    0.00    0.00    0.00      0      0      0       0      11 16.06
 2022 168    48    39   10.0      3   0.39    236     16      0    346    253    253      0    0.0  0.000      0      0  0.000  0.000  0.390  0.000  0.000  0.000  0.000   1.60   0.00   0.00      0      0    163.1   0.17   0.00   0.57    2.27    2.13    2.04    0.90    0.33    0.03    0.00    0.00    0.00    0.00      0      0      0       0      12 22.37
 2022 169    49    40   10.0      3   0.43    268     17      0    375    285    285      0    0.0  0.000      0      0  0.000  0.000  0.386  0.000  0.000  0.000  0.000   1.49   0.00   0.00      0      0    158.5   0.18   0.00   0.60    2.41    2.27    2.18    0.98    0.39    0.07    0.00    0.00    0.00    0.00      0      0      0       0      14 23.53
 2022 170    50    41   11.0      3   0.46    301     19      0    400    320    320      0    0.0  0.000      0      0  0.000  0.000  0.422  0.000  0.000  0.000  0.000   1.39   0.00   0.00      0      0    153.8   0.20   0.00   0.62    2.40    2.41    2.32    1.06    0.45    0.12    0.00    0.00    0.00    0.00      0      0      0       0      16 23.45
 2022 171    51    42   11.0      3   0.49    330     22      0    419    352    352      0    0.0  0.000      0      0  0.000  0.000  0.465  0.000  0.000  0.000  0.000   1.33   0.00   0.00      0      0    149.0   0.21   0.00   0.65    2.38    2.51    2.42    1.11    0.49    0.16    0.01    0.00    0.00    0.00      0      0      0       0      18 21.30
 2022 172    52    43   11.0      3   0.50    345     23      0    436    368    368      0    0.0  0.000      0      0  0.000  0.000  0.502  0.000  0.000  0.000  0.000   1.34   0.00   0.00      0      0    143.9   0.21   0.00   0.66    2.37    2.61    2.52    1.16    0.53    0.19    0.03    0.00    0.00    0.00      0      0      0       0      20 11.60
 2022 173    53    44   12.0      3   0.50    362     26      0    461    388    388      0    0.0  0.000      0      0  0.000  0.000  0.523  0.000  0.000  0.000  0.000   1.34   0.00   0.00      0      0    139.0   0.22   0.00   0.67    2.36    2.74    2.65    1.24    0.59    0.23    0.07    0.00    0.00    0.00      0      0      0       0      22 11.95
 2022 174    54    45   12.0      3   0.53    390     31      0    490    421    421      0    0.0  0.000      0      0  0.000  0.000  0.509  0.000  0.000  0.000  0.000   1.29   0.00   0.00      0      0    135.0   0.23   0.00   0.69    2.35    2.89    2.80    1.32    0.65    0.27    0.12    0.00    0.00    0.00      0      0      0       0      25 18.63
 2022 175    55    46   12.0      3   0.55    418     37      0    511    455    455      0    0.0  0.000      0      0  0.000  0.000  0.501  0.000  0.000  0.000  0.000   1.25   0.00   0.00      0      0    131.2   0.24   0.00   0.71    2.34    2.99    2.91    1.38    0.70    0.31    0.15    0.00    0.00    0.00      0      0      0       0      27 17.65
 2022 176    56    47   13.0      3   0.55    436     42      0    536    478    478      0    0.0  0.000      0      0  0.000  0.000  0.519  0.000  0.000  0.000  0.000   1.24   0.00   0.00      0      0    127.0   0.24   0.00   0.72    2.32    3.13    3.04    1.45    0.75    0.35    0.19    0.01    0.00    0.00      0      0      0       0      30 12.10
 2022 177    57    48   13.0      3   0.55    448     45      0    562    492    492      0    0.0  0.000      0      0  0.000  0.000  0.539  0.000  0.000  0.000  0.000   1.25   0.00   0.00      0      0    122.7   0.24   0.00   0.73    2.31    3.26    3.17    1.52    0.81    0.39    0.23    0.02    0.00    0.00      0      0      0       0      32  8.11
 2022 178    58    49   13.0      3   0.55    466     51      0    594    517    517      0    0.0  0.000      0      0  0.000  0.000  0.539  0.000  0.000  0.000  0.000   1.23   0.00   0.00      0      0    119.0   0.24   0.00   0.74    2.30    3.42    3.33    1.61    0.87    0.44    0.29    0.03    0.00    0.00      0      0      0       0      35 13.35
 2022 179    59    50   13.0      3   0.57    490     59      0    620    550    550      0    0.0  0.000      0      0  0.000  0.000  0.527  0.000  0.000  0.000  0.000   1.19   0.00   0.00      0      0    115.8   0.24   0.00   0.75    2.29    3.55    3.46    1.68    0.93    0.48    0.33    0.04    0.00    0.00      0      0      0       0      38 15.81
 2022 180    60    51   14.0      3   0.59    521     73      0    638    594    594      0    0.0  0.000      0      0  0.000  0.000  0.524  0.000  0.000  0.000  0.000   1.14   0.00   0.00      0      0    113.1   0.25   0.00   0.77    2.28    3.64    3.55    1.73    0.97    0.51    0.36    0.05    0.00    0.00      0      0      0       0      41 20.10
 2022 181    61    52   14.0      3   0.61    550     88      0    649    638    638      0    0.0  0.000      0      0  0.000  0.000  0.530  0.000  0.000  0.000  0.000   1.10   0.00   0.00      0      0    110.4   0.26   0.00   0.79    2.26    3.69    3.60    1.76    0.99    0.53    0.38    0.06    0.00    0.00      0      0      0       0      44 19.00
 2022 182    62    53   15.0      3   0.62    573    102      0    664    674    674      0    0.0  0.000      0      0  0.000  0.000  0.547  0.000  0.000  0.000  0.000   1.07   0.00   0.00      0      0    107.4   0.26   0.00   0.81    2.25    3.77    3.68    1.80    1.02    0.55    0.40    0.08    0.00    0.00      0      0      0       0      48 16.20
 2022 183    63    54   15.0      3   0.62    592    114      0    685    706    706      0    0.0  0.000      0      0  0.000  0.000  0.561  0.000  0.000  0.000  0.000   1.10   0.00   0.00      0      0    104.2   0.26   0.00   0.82    2.35    3.86    3.77    1.85    1.06    0.58    0.43    0.10    0.00    0.00      0      0      0       0      51 14.15
 2022 184    64    55   15.0      3   0.63    621    135      0    701    756    756      0    0.0  0.000      0      0  0.000  0.000  0.542  0.000  0.000  0.000  0.000   1.07   0.00   0.00      0      0    101.8   0.27   0.00   0.84    2.41    3.92    3.83    1.89    1.09    0.60    0.45    0.11    0.00    0.00      0      0      0       0      54 19.51
 2022 185    65    56   16.0      3   0.65    652    161      0    718    813    813      0    0.0  0.000      0      0  0.000  0.000  0.532  0.000  0.000  0.000  0.000   1.04   0.00   0.00      0      0     99.7   0.28   0.00   0.86    2.49    3.98    3.90    1.92    1.12    0.62    0.48    0.13    0.00    0.00      0      0      0       0      58 19.66
 2022 186    66    57   16.0      3   0.67    683    190      0    731    873    873      0    0.0  0.000      0      0  0.000  0.000  0.533  0.000  0.000  0.000  0.000   1.01   0.00   0.00      0      0     97.5   0.29   0.00   0.87    2.55    4.00    3.95    1.95    1.14    0.64    0.49    0.15    0.00    0.00      0      0      0       0      61 19.88
 2022 187    67    58   17.0      3   0.67    707    215      0    730    922    922      0    0.0  0.000      0      0  0.000  0.000  0.537  0.000  0.000  0.000  0.000   1.01   0.00   0.00      0      0     95.1   0.29   0.00   0.88    2.55    3.99    3.94    1.95    1.14    0.64    0.49    0.15    0.00    0.00      0      0      0       0      65 15.80
 2022 188    68    59   17.0      3   0.69    741    255      0    730    996    996      0    0.0  0.000      0      0  0.000  0.000  0.541  0.000  0.000  0.000  0.000   0.98   0.00   0.00      0      0     93.2   0.30   0.00   0.90    2.55    3.99    3.94    1.95    1.14    0.64    0.50    0.15    0.00    0.00      0      0      0       0      69 16.05
 2022 189    69    60   17.0      3   0.71    775    312      0    735   1087   1089      0    0.0  0.000      1      0  0.000  0.000  0.535  0.000  0.000  0.000  0.000   0.93   0.00   0.00      0      1     91.4   0.30   0.00   0.91    2.57    4.00    3.95    1.96    1.15    0.65    0.50    0.16    0.01    0.00      0      0      0       0      72 17.20
 2022 190    70    61   18.0      3   0.72    805    376      0    739   1181   1184      0    0.0  0.000      3      0  0.000  0.000  0.540  0.000  0.000  0.000  0.000   0.90   0.00   0.00      0      3     89.4   0.31   0.00   0.93    2.59    4.00    3.96    1.96    1.15    0.65    0.51    0.16    0.01    0.00      0      0      0       0      76 19.62
 2022 191    71    62   18.0      3   0.72    831    442      0    743   1273   1279      0    0.0  0.000      6      0  0.000  0.000  0.550  0.000  0.000  0.000  0.000   0.87   0.00   0.01      0      6     87.2   0.31   0.00   0.94    2.61    4.00    3.97    1.97    1.16    0.66    0.51    0.17    0.02    0.00      0      0      0       0      80 21.24
 2022 192    72    63   18.0      3   0.71    846    479      0    766   1325   1335      0    0.0  0.000     10      0  0.000  0.000  0.562  0.000  0.000  0.000  0.000   0.88   0.00   0.01      0     10     84.5   0.31   0.00   0.95    2.70    4.00    4.00    2.02    1.19    0.69    0.54    0.19    0.05    0.00      0      0      0       0      83 13.40
 2022 193    73    64   19.0      3   0.70    859    514      0    786   1373   1388      0    0.0  0.000     15      0  0.000  0.000  0.570  0.000  0.000  0.000  0.000   0.88   0.00   0.01      0     15     81.8   0.31   0.00   0.97    2.78    4.00    4.00    2.06    1.23    0.71    0.57    0.21    0.09    0.00      0      0      0       0      87 13.55
 2022 194    74    65   19.0      3   0.70    877    566      0    793   1443   1465      0    0.0  0.000     22      0  0.000  0.000  0.558  0.000  0.000  0.000  0.000   0.87   0.00   0.01      0     22     79.5   0.31   0.00   0.98    2.80    4.00    4.00    2.07    1.23    0.72    0.58    0.22    0.10    0.00      0      0      0       0      91 18.69
 2022 195    75    66   19.0      3   0.70    897    626      0    801   1523   1556      0    0.0  0.000     33      0  0.000  0.000  0.541  0.000  0.000  0.000  0.000   0.86   0.00   0.02      0     33     77.5   0.31   0.00   1.00    2.84    4.00    4.00    2.08    1.25    0.73    0.59    0.22    0.12    0.00      0      0      0       0      95 21.33
 2022 196    76    67   20.0      3   0.69    913    674      0    813   1587   1634      0    0.0  0.000     47      0  0.000  0.000  0.535  0.000  0.000  0.000  0.000   0.85   0.00   0.03      0     47     75.4   0.31   0.00   1.01    2.89    4.00    4.00    2.11    1.27    0.74    0.60    0.24    0.14    0.00      0      0      0       0      99 18.04
 2022 197    77    68   20.0      3   0.68    927    718      0    813   1646   1706      0    0.0  0.000     60      0  0.000  0.000  0.540  0.000  0.000  0.000  0.000   0.85   0.00   0.04      0     60     73.3   0.31   0.00   1.02    2.89    4.00    4.00    2.10    1.27    0.74    0.60    0.24    0.14    0.00      0      0      0       0     103 19.06
 2022 198    78    69   20.0      3   0.67    942    752      0    826   1694   1780      0    0.0  0.000     86      0  0.000  0.000  0.540  0.000  0.000  0.000  0.000   0.85   0.00   0.05      0     86     71.3   0.31   0.00   1.04    2.94    4.00    4.00    2.13    1.29    0.76    0.62    0.25    0.15    0.00      0      0      0       0     107 17.55
 2022 199    79    70   20.0      3   0.67    959    786      0    835   1745   1865      0    0.0  0.000    119      0  0.000  0.000  0.538  0.000  0.000  0.000  0.000   0.85   0.00   0.06      0    119     69.5   0.31   0.00   1.05    2.98    4.00    4.00    2.15    1.30    0.77    0.63    0.26    0.16    0.00      0      0      0       0     111 20.09
 2022 200    80    71   20.0      3   0.66    974    802      0    852   1776   1938      0    0.0  0.000    162      0  0.000  0.000  0.533  0.000  0.000  0.000  0.000   0.86   0.00   0.08      0    162     67.7   0.31   0.00   1.06    3.05    4.00    4.00    2.18    1.33    0.79    0.65    0.28    0.17    0.01      0      0      0       0     116 16.90
 2022 201    81    72   20.0      3   0.65    988    808      0    868   1796   2006      0    0.0  0.000    210      0  0.000  0.000  0.530  0.000  0.000  0.000  0.000   0.87   0.00   0.10      0    210     65.9   0.31   0.00   1.07    3.03    4.00    4.00    2.22    1.36    0.82    0.68    0.30    0.18    0.01      0      0      0       0     120 15.69
 2022 202    82    73   20.0      3   0.65   1005    824      0    872   1829   2091      0    0.0  0.000    262      0  0.000  0.000  0.521  0.000  0.000  0.000  0.000   0.88   0.00   0.13      0    262     64.4   0.31   0.00   1.08    3.05    4.00    4.00    2.23    1.37    0.82    0.68    0.30    0.19    0.02      0      0      0       0     124 18.78
 2022 203    83    74   20.0      4   0.62    991    911      0    872   1903   2180      0    0.0  0.000    278      0  0.000  0.000  0.505  0.000  0.000  0.000  0.000   0.87   0.00   0.13      0    278     62.9   0.31   0.00   1.10    3.05    4.00    4.00    2.23    1.37    0.82    0.68    0.30    0.19    0.02      0      0      0       0     129 19.02
 2022 204    84    75   20.0      4   0.60    976    984      0    871   1960   2253      0    0.0  0.000    293      0  0.000  0.000  0.491  0.000  0.000  0.000  0.000   0.87   0.00   0.13      0    293     61.5   0.31   0.00   1.11    3.05    3.99    3.99    2.22    1.36    0.82    0.68    0.30    0.19    0.02      0      0      0       0     133 21.40
 2022 205    85    76   20.0      4   0.58    960   1057      0    871   2017   2327      0    0.0  0.000    310      0  0.000  0.000  0.492  0.000  0.000  0.000  0.000   0.87   0.00   0.13      0    310     60.2   0.31   0.00   1.12    3.05    3.99    3.99    2.22    1.36    0.82    0.69    0.31    0.19    0.02      0      0      0       0     137 15.00
 2022 206    86    77   20.0      4   0.56    943   1073      0    868   2016   2330      0    0.0  0.000    314      0  0.000  0.000  0.490  0.000  0.000  0.000  0.000   0.88   0.00   0.13      0    314     59.0   0.31   0.00   1.13    3.04    3.97    3.97    2.21    1.36    0.82    0.68    0.30    0.19    0.02      0      0      0       0     142 12.10
 2022 207    87    78   20.0      4   0.54    924   1115      0    865   2039   2364      0    0.0  0.000    325      0  0.000  0.000  0.488  0.000  0.000  0.000  0.000   0.89   0.00   0.14      0    325     57.9   0.31   0.00   1.14    3.03    3.96    3.96    2.20    1.35    0.82    0.68    0.30    0.19    0.02      0      0      0       0     146 14.65
 2022 208    88    79   20.0      4   0.52    906   1160      0    864   2065   2403      0    0.0  0.000    338      0  0.000  0.000  0.468  0.000  0.000  0.000  0.000   0.90   0.00   0.14      0    338     57.0   0.31   0.00   1.15    3.02    3.95    3.95    2.20    1.35    0.81    0.68    0.30    0.19    0.02      0      0      0       0     150 13.20