*Soil Inorganic Nitrogen daily output file

*DSSAT Cropping System Model Ver. 4.8.2.000 -release  FEB 07, 2025 20:08:35

*RUN   1        : silt_loam_13in_irr        MZCER048 UNLI2201    1
 MODEL          : MZCER048 - Maize
 EXPERIMENT     : UNLI2201 MZ IRRIGATED MAIZE PRODUCTION
 DATA PATH      :
 TREATMENT  1   : silt_loam_13in_irr        MZCER048
  
!                                                                                                                                      NO3 (ppm) at soil dep. (cm):                                                    NH4 (ppm) at soil dep. (cm):                                                    Total Inorganic N @dep(ppm):
!                                                                                                                                       0-5    5-15   15-23   23-38   38-53   53-61   61-69   69-84   84-99  99-160     0-5    5-15   15-23   23-38   38-53   53-61   61-69   69-84   84-99  99-160     0-5    5-15   15-23   23-38   38-53   53-61   61-69   69-84   84-99  99-160
@YEAR DOY   DAS  NAPC  NI#M    NIAD    NITD    NHTD   NURTD    NMNC    NITC    NDNC    NIMC    AMLC   NNMNC    NUCM    NLCC    TDNC    NI1D    NI2D    NI3D    NI4D    NI5D    NI6D    NI7D    NI8D    NI9D    NI10    NH1D    NH2D    NH3D    NH4D    NH5D    NH6D    NH7D    NH8D    NH9D    NH10    NT1D    NT2D    NT3D    NT4D    NT5D    NT6D    NT7D    NT8D    NT9D    NT10    
 2022 120     0     0     0     0.0     0.0     0.0     0.0    0.00    0.00    0.00    0.00    0.00    0.00    0.00    0.00    0.00    0.00     0.0     0.0    0.00    0.00    0.00    0.00    0.00    0.00    0.00    0.00    0.00    0.00    0.00    0.00    0.00    0.00    0.00    0.00    0.00    0.00    0.00    0.00    0.00    0.00    0.00    0.00    0.00    0.00    0.00
 2022 121     1     0     0     0.1     0.0     0.1     0.0    0.12    0.00    0.00    0.00    0.00    0.12    0.00    0.00    0.00    0.00     0.0     0.0    0.00    0.00    0.00    0.00    0.00    0.00    0.00    0.02    0.02    0.01    0.01    0.01    0.01    0.01    0.01    0.00    0.00    0.02    0.02    0.01    0.01    0.01    0.01    0.01    0.01    0.00    0.00
 2022 122     2     0     0     0.2     0.0     0.2     0.0    0.23    0.01    0.00    0.00    0.00    0.23    0.00    0.00    0.00    0.00     0.0     0.0    0.00    0.00    0.00    0.00    0.00    0.00    0.00    0.04    0.03    0.02    0.02    0.01    0.01    0.01    0.01    0.01    0.00    0.05    0.03    0.03    0.02    0.01    0.01    0.01    0.01    0.01    0.00
 2022 123     3     0     0     0.3     0.0     0.3     0.0    0.31    0.04    0.00    0.00    0.00    0.31    0.00    0.00    0.00    0.01     0.0     0.0    0.00    0.00    0.00    0.00    0.00    0.00    0.00    0.06    0.04    0.03    0.02    0.02    0.01    0.01    0.01    0.01    0.00    0.06    0.04    0.03    0.02    0.02    0.02    0.01    0.01    0.01    0.01
 2022 124     4     0     0     0.4     0.1     0.3     0.0    0.36    0.06    0.00    0.00    0.00    0.36    0.00    0.00    0.00    0.01     0.0     0.0    0.00    0.00    0.00    0.00    0.00    0.00    0.00    0.07    0.05    0.03    0.02    0.02    0.01    0.01    0.01    0.01    0.00    0.08    0.05    0.04    0.03    0.02    0.02    0.02    0.02    0.01    0.01
 2022 125     5     0     0     0.4     0.1     0.3     0.0    0.39    0.09    0.00    0.00    0.00    0.39    0.00    0.00    0.00    0.02     0.0     0.0    0.01    0.01    0.01    0.00    0.00    0.00    0.00    0.07    0.05    0.04    0.02    0.02    0.01    0.01    0.01    0.01    0.00    0.08    0.06    0.05    0.03    0.02    0.02    0.02    0.02    0.01    0.01
 2022 126     6     0     0     0.4     0.1     0.3     0.0    0.41    0.12    0.00    0.00    0.00    0.41    0.00    0.00    0.00    0.02     0.0     0.0    0.01    0.01    0.01    0.01    0.01    0.00    0.00    0.07    0.05    0.04    0.02    0.02    0.01    0.01    0.01    0.01    0.00    0.09    0.06    0.05    0.03    0.02    0.02    0.02    0.02    0.01    0.01
 2022 127     7     0     0     0.5     0.1     0.3     0.0    0.46    0.15    0.00    0.00    0.00    0.46    0.00    0.00    0.00    0.03     0.0     0.0    0.01    0.01    0.01    0.01    0.01    0.00    0.00    0.08    0.05    0.04    0.03    0.02    0.01    0.01    0.01    0.01    0.00    0.11    0.07    0.06    0.04    0.03    0.02    0.02    0.02    0.01    0.01
 2022 128     8     0     0     0.6     0.2     0.4     0.0    0.60    0.19    0.00    0.00    0.00    0.60    0.00    0.00    0.00    0.04     0.0     0.0    0.01    0.01    0.01    0.01    0.01    0.01    0.00    0.10    0.06    0.05    0.03    0.02    0.02    0.02    0.02    0.01    0.01    0.13    0.09    0.07    0.05    0.03    0.03    0.02    0.02    0.02    0.01
 2022 129     9     0     0     0.8     0.2     0.6     0.0    0.82    0.25    0.00    0.00    0.00    0.82    0.00    0.00    0.00    0.04     0.0     0.0    0.02    0.01    0.01    0.01    0.01    0.01    0.00    0.12    0.08    0.06    0.04    0.03    0.03    0.02    0.02    0.02    0.01    0.16    0.11    0.10    0.07    0.04    0.04    0.04    0.04    0.03    0.01
 2022 130    10     0     0     1.1     0.3     0.8     0.0    1.11    0.34    0.00    0.00    0.00    1.11    0.00    0.00    0.00    0.04     0.0     0.0    0.03    0.02    0.02    0.02    0.01    0.01    0.01    0.15    0.10    0.08    0.06    0.04    0.04    0.03    0.04    0.03    0.02    0.19    0.14    0.12    0.09    0.06    0.06    0.05    0.05    0.04    0.02
 2022 131    11     0     0     1.4     0.5     1.0     0.0    1.45    0.47    0.00    0.00    0.00    1.45    0.00    0.00    0.00    0.05     0.0     0.0    0.05    0.03    0.03    0.02    0.02    0.01    0.01    0.17    0.12    0.10    0.07    0.05    0.05    0.04    0.05    0.04    0.02    0.23    0.17    0.15    0.12    0.08    0.08    0.07    0.07    0.05    0.03
 2022 132    12     0     0     1.8     0.6     1.2     0.0    1.83    0.65    0.00    0.00    0.00    1.83    0.00    0.00    0.00    0.07     0.1     0.1    0.06    0.05    0.05    0.04    0.03    0.02    0.01    0.20    0.15    0.12    0.08    0.06    0.06    0.05    0.06    0.05    0.03    0.27    0.20    0.18    0.14    0.11    0.11    0.09    0.09    0.07    0.04
 2022 133    13     0     0     2.2     0.9     1.4     0.0    2.24    0.87    0.00    0.00    0.00    2.24    0.00    0.00    0.00    0.08     0.1     0.1    0.08    0.07    0.07    0.06    0.05    0.03    0.02    0.23    0.17    0.14    0.09    0.07    0.06    0.06    0.07    0.06    0.04    0.30    0.23    0.21    0.17    0.13    0.14    0.12    0.12    0.09    0.05
 2022 134    14     0     0     2.6     1.1     1.5     0.0    2.63    1.11    0.01    0.00    0.00    2.63    0.00    0.00    0.00    0.09     0.1     0.1    0.09    0.08    0.10    0.08    0.07    0.05    0.03    0.25    0.18    0.15    0.11    0.07    0.07    0.07    0.08    0.06    0.04    0.34    0.26    0.23    0.20    0.16    0.17    0.15    0.15    0.11    0.07
 2022 135    15     0     0     3.0     1.3     1.7     0.0    3.02    1.36    0.01    0.00    0.00    3.02    0.00    0.00    0.00    0.10     0.1     0.1    0.10    0.10    0.11    0.11    0.10    0.07    0.04    0.26    0.20    0.17    0.12    0.08    0.08    0.07    0.08    0.07    0.04    0.36    0.28    0.26    0.22    0.18    0.19    0.18    0.18    0.13    0.08
 2022 136    16     0     0     3.4     1.6     1.8     0.0    3.40    1.63    0.01    0.00    0.00    3.40    0.00    0.00    0.00    0.15     0.1     0.1    0.10    0.10    0.12    0.12    0.12    0.09    0.06    0.28    0.21    0.18    0.13    0.09    0.09    0.08    0.08    0.07    0.05    0.43    0.32    0.29    0.23    0.19    0.20    0.20    0.20    0.16    0.10
 2022 137    17     0     0     3.7     1.9     1.8     0.0    3.76    1.94    0.01    0.00    0.00    3.76    0.00    0.04    0.00    0.23     0.1     0.1    0.11    0.10    0.12    0.13    0.09    0.11    0.10    0.27    0.21    0.18    0.13    0.09    0.09    0.09    0.09    0.07    0.05    0.51    0.34    0.30    0.24    0.19    0.21    0.21    0.18    0.18    0.14
 2022 138    18     0     0     4.0     2.2     1.8     0.0    4.12    2.29    0.02    0.00    0.00    4.12    0.00    0.09    0.00    0.34     0.2     0.1    0.12    0.11    0.12    0.12    0.11    0.10    0.10    0.27    0.20    0.18    0.13    0.09    0.09    0.09    0.09    0.08    0.05    0.60    0.36    0.32    0.26    0.20    0.21    0.20    0.20    0.18    0.14
 2022 139    19     0     0     4.3     2.5     1.8     0.0    4.52    2.67    0.02    0.00    0.00    4.52    0.00    0.15    0.00    0.47     0.2     0.2    0.14    0.12    0.12    0.12    0.12    0.11    0.10    0.26    0.20    0.18    0.13    0.09    0.09    0.09    0.09    0.08    0.05    0.73    0.39    0.34    0.27    0.21    0.21    0.21    0.21    0.19    0.15
 2022 140    20     0     0     4.7     2.9     1.9     0.0    4.94    3.08    0.02    0.00    0.00    4.94    0.00    0.18    0.00    0.61     0.2     0.2    0.16    0.13    0.13    0.13    0.14    0.12    0.11    0.26    0.20    0.17    0.13    0.09    0.09    0.09    0.10    0.08    0.05    0.88    0.43    0.37    0.29    0.22    0.22    0.22    0.23    0.20    0.16
 2022 141    21     0     0     5.1     3.2     1.9     0.0    5.32    3.45    0.02    0.00    0.00    5.32    0.00    0.20    0.00    0.70     0.3     0.2    0.18    0.14    0.15    0.14    0.16    0.14    0.12    0.27    0.20    0.17    0.13    0.09    0.09    0.09    0.10    0.08    0.05    0.96    0.46    0.40    0.32    0.24    0.24    0.23    0.25    0.22    0.17
 2022 142    22     0     0     5.4     3.5     1.9     0.0    5.63    3.77    0.02    0.00    0.00    5.63    0.00    0.20    0.00    0.80     0.3     0.2    0.20    0.16    0.16    0.15    0.17    0.15    0.13    0.27    0.19    0.17    0.13    0.09    0.09    0.09    0.10    0.08    0.05    1.07    0.49    0.42    0.33    0.25    0.25    0.24    0.27    0.23    0.18
 2022 143    23     0     0     5.6     3.8     1.8     0.0    5.83    4.03    0.02    0.00    0.00    5.83    0.00    0.20    0.00    0.31     0.4     0.4    0.25    0.18    0.17    0.17    0.18    0.16    0.14    0.27    0.19    0.17    0.13    0.09    0.09    0.08    0.09    0.08    0.05    0.58    0.59    0.56    0.38    0.27    0.26    0.25    0.28    0.24    0.19
 2022 144    24     0     0     5.7     4.0     1.7     0.0    5.97    4.24    0.02    0.00    0.00    5.97    0.00    0.20    0.00    0.16     0.3     0.4    0.34    0.23    0.21    0.19    0.20    0.17    0.14    0.28    0.19    0.16    0.12    0.09    0.08    0.08    0.09    0.07    0.05    0.44    0.49    0.54    0.46    0.32    0.29    0.27    0.29    0.25    0.19
 2022 145    25     0     0     5.8     4.2     1.6     0.0    6.05    4.40    0.02    0.00    0.00    6.05    0.00    0.20    0.00    0.11     0.2     0.3    0.37    0.29    0.28    0.24    0.22    0.18    0.15    0.27    0.19    0.16    0.12    0.08    0.08    0.07    0.08    0.07    0.04    0.39    0.41    0.47    0.48    0.37    0.36    0.31    0.30    0.25    0.19
 2022 146    26     0     0     5.9     4.3     1.6     0.0    6.15    4.56    0.02    0.00    0.00    6.15    0.00    0.20    0.00    0.13     0.2     0.3    0.36    0.32    0.35    0.30    0.25    0.20    0.16    0.27    0.19    0.16    0.11    0.08    0.07    0.07    0.08    0.06    0.04    0.40    0.35    0.41    0.47    0.40    0.42    0.36    0.33    0.26    0.20
 2022 147    27     0     0     6.1     4.5     1.6     0.0    6.31    4.74    0.02    0.00    0.00    6.31    0.00    0.20    0.00    0.13     0.1     0.2    0.34    0.33    0.40    0.35    0.29    0.22    0.17    0.27    0.19    0.16    0.11    0.08    0.07    0.07    0.07    0.06    0.04    0.40    0.33    0.38    0.45    0.41    0.47    0.42    0.36    0.28    0.21
 2022 148    28     0     0     6.3     4.7     1.6     0.0    6.56    4.94    0.03    0.00    0.00    6.56    0.00    0.20    0.00    0.13     0.1     0.2    0.31    0.33    0.42    0.41    0.34    0.25    0.19    0.27    0.20    0.17    0.12    0.08    0.07    0.07    0.08    0.06    0.04    0.41    0.33    0.36    0.43    0.41    0.49    0.48    0.41    0.32    0.23
 2022 149    29     0     0     6.6     4.9     1.7     0.0    6.88    5.18    0.04    0.00    0.00    6.88    0.00    0.21    0.00    0.13     0.1     0.2    0.29    0.33    0.40    0.42    0.39    0.30    0.22    0.28    0.21    0.17    0.13    0.08    0.08    0.07    0.08    0.07    0.04    0.42    0.34    0.36    0.41    0.41    0.48    0.50    0.46    0.37    0.26
 2022 150    30     0     0     7.0     5.2     1.8     0.0    7.28    5.46    0.05    0.00    0.00    7.28    0.00    0.21    0.00    0.18     0.1     0.2    0.27    0.31    0.38    0.42    0.41    0.35    0.26    0.29    0.22    0.19    0.14    0.09    0.09    0.08    0.08    0.07    0.05    0.48    0.37    0.38    0.40    0.40    0.47    0.50    0.50    0.42    0.31
 2022 151    31     0     0     7.2     5.3     1.9     0.0    7.69    5.79    0.06    0.00    0.00    7.69    0.00    0.43    0.00    0.23     0.2     0.2    0.24    0.26    0.33    0.40    0.29    0.37    0.35    0.30    0.22    0.19    0.14    0.10    0.09    0.09    0.09    0.07    0.05    0.54    0.39    0.38    0.38    0.36    0.42    0.48    0.38    0.44    0.40
 2022 152    32     0     0     7.3     5.4     1.9     0.0    8.10    6.19    0.07    0.00    0.00    8.10    0.00    0.74    0.00    0.32     0.2     0.2    0.24    0.24    0.29    0.32    0.30    0.31    0.31    0.29    0.21    0.19    0.14    0.10    0.09    0.09    0.09    0.08    0.05    0.61    0.42    0.40    0.38    0.34    0.38    0.40    0.39    0.39    0.36
 2022 153    33     0     0     7.3     5.4     1.9     0.0    8.46    6.57    0.07    0.00    0.00    8.46    0.04    1.03    0.00    0.36     0.2     0.2    0.25    0.23    0.26    0.28    0.30    0.29    0.29    0.28    0.21    0.18    0.14    0.10    0.09    0.09    0.09    0.08    0.05    0.64    0.44    0.42    0.38    0.33    0.36    0.37    0.39    0.37    0.34
 2022 154    34     0     0     7.4     5.5     1.9     0.0    8.79    6.91    0.07    0.00    0.00    8.79    0.10    1.19    0.00    0.39     0.3     0.3    0.26    0.24    0.26    0.27    0.30    0.29    0.29    0.28    0.20    0.18    0.13    0.09    0.09    0.09    0.09    0.08    0.05    0.67    0.46    0.43    0.39    0.33    0.35    0.36    0.40    0.37    0.34
 2022 155    35     0     0     7.5     5.7     1.9     0.0    9.09    7.23    0.07    0.00    0.00    9.09    0.22    1.25    0.00    0.40     0.3     0.3    0.26    0.24    0.26    0.27    0.31    0.29    0.29    0.27    0.20    0.17    0.13    0.09    0.09    0.09    0.09    0.08    0.05    0.67    0.48    0.45    0.40    0.34    0.35    0.35    0.40    0.37    0.34
 2022 156    36     0     0     7.7     5.8     1.9     0.0    9.42    7.56    0.07    0.00    0.00    9.42    0.39    1.27    0.00    0.41     0.3     0.3    0.27    0.25    0.27    0.27    0.32    0.30    0.30    0.27    0.20    0.17    0.13    0.09    0.09    0.09    0.09    0.08    0.05    0.68    0.48    0.45    0.40    0.35    0.36    0.36    0.42    0.38    0.35
 2022 157    37     0     0     7.8     6.0     1.9     0.0    9.79    7.93    0.07    0.00    0.00    9.79    0.59    1.27    0.00    0.40     0.3     0.3    0.27    0.27    0.28    0.29    0.34    0.32    0.31    0.27    0.20    0.17    0.13    0.09    0.09    0.09    0.10    0.08    0.05    0.67    0.48    0.45    0.41    0.36    0.37    0.37    0.44    0.40    0.36
 2022 158    38     0     0     8.0     6.2     1.9     0.0   10.22    8.33    0.07    0.00    0.00   10.22    0.80    1.27    0.00    0.34     0.3     0.3    0.28    0.29    0.30    0.30    0.36    0.33    0.31    0.27    0.19    0.17    0.13    0.09    0.09    0.09    0.10    0.08    0.06    0.60    0.51    0.45    0.41    0.38    0.39    0.39    0.46    0.41    0.37
 2022 159    39     0     0     8.3     6.4     1.9     0.0   10.66    8.76    0.07    0.00    0.00   10.66    1.03    1.27    0.00    0.33     0.3     0.3    0.28    0.31    0.32    0.32    0.38    0.35    0.32    0.26    0.19    0.17    0.13    0.10    0.09    0.09    0.10    0.09    0.06    0.59    0.49    0.47    0.41    0.40    0.41    0.41    0.48    0.43    0.38
 2022 160    40     0     0     8.5     6.6     1.9     0.0   11.12    9.20    0.07    0.00    0.00   11.12    1.25    1.27    0.00    0.41     0.3     0.3    0.28    0.33    0.34    0.34    0.40    0.36    0.33    0.26    0.19    0.17    0.13    0.10    0.10    0.09    0.10    0.09    0.06    0.67    0.49    0.45    0.41    0.42    0.43    0.43    0.50    0.45    0.39
 2022 161    41     0     0     8.7     6.7     1.9     0.0   11.58    9.64    0.07    0.00    0.00   11.58    1.51    1.27    0.00    0.40     0.3     0.3    0.28    0.35    0.35    0.35    0.42    0.38    0.34    0.26    0.19    0.17    0.13    0.10    0.10    0.10    0.10    0.09    0.06    0.65    0.48    0.45    0.41    0.44    0.45    0.45    0.52    0.47    0.40
 2022 162    42     0     0     8.9     6.9     2.0     0.0   12.04   10.08    0.07    0.00    0.00   12.04    1.76    1.27    0.00    0.32     0.3     0.3    0.28    0.37    0.38    0.37    0.44    0.40    0.36    0.25    0.19    0.17    0.13    0.10    0.10    0.10    0.10    0.09    0.06    0.58    0.49    0.46    0.41    0.47    0.48    0.47    0.55    0.49    0.42
 2022 163    43     0     0     9.2     7.2     2.0     0.0   12.53   10.55    0.07    0.00    0.00   12.53    1.98    1.27    0.00    0.32     0.3     0.3    0.28    0.39    0.40    0.40    0.47    0.42    0.37    0.26    0.19    0.16    0.13    0.10    0.10    0.10    0.11    0.09    0.06    0.58    0.49    0.46    0.41    0.49    0.50    0.50    0.57    0.51    0.43
 2022 164    44     0     0     9.4     7.5     2.0     0.0   13.07   11.08    0.07    0.00    0.00   13.07    2.23    1.27    0.00    0.32     0.3     0.3    0.29    0.40    0.43    0.42    0.50    0.44    0.38    0.26    0.19    0.16    0.13    0.10    0.10    0.10    0.11    0.10    0.06    0.58    0.50    0.46    0.42    0.50    0.53    0.52    0.60    0.53    0.45
 2022 165    45     0     0     9.8     7.8     2.0     0.0   13.69   11.71    0.07    0.00    0.00   13.69    2.54    1.27    0.00    0.33     0.3     0.3    0.29    0.40    0.46    0.45    0.53    0.47    0.40    0.25    0.18    0.16    0.13    0.10    0.11    0.10    0.11    0.10    0.06    0.58    0.50    0.47    0.42    0.49    0.56    0.56    0.64    0.56    0.47
 2022 166    46     0     0    10.0     8.0     2.0     0.0   14.32   12.34    0.07    0.00    0.00   14.32    2.92    1.27    0.00    0.32     0.3     0.3    0.29    0.38    0.49    0.48    0.57    0.50    0.42    0.25    0.18    0.15    0.13    0.10    0.11    0.10    0.11    0.10    0.07    0.57    0.49    0.46    0.42    0.48    0.60    0.59    0.67    0.59    0.48
 2022 167    47     0     0    10.2     8.2     2.0     0.0   14.95   12.98    0.07    0.00    0.00   14.95    3.32    1.27    0.00    0.31     0.3     0.3    0.29    0.35    0.52    0.52    0.60    0.52    0.44    0.24    0.17    0.15    0.13    0.10    0.11    0.10    0.11    0.10    0.07    0.56    0.49    0.45    0.42    0.45    0.63    0.62    0.71    0.62    0.50
 2022 168    48     0     0    10.4     8.4     2.0     0.0   15.54   13.56    0.07    0.00    0.00   15.54    3.71    1.27    0.00    0.32     0.3     0.3    0.29    0.32    0.56    0.55    0.64    0.55    0.46    0.24    0.17    0.15    0.13    0.10    0.11    0.11    0.11    0.10    0.07    0.56    0.48    0.45    0.42    0.42    0.66    0.65    0.75    0.65    0.52
 2022 169    49     0     0    10.7     8.7     2.0     0.0   16.14   14.16    0.07    0.00    0.00   16.14    4.07    1.27    0.00    0.34     0.3     0.3    0.29    0.29    0.58    0.58    0.67    0.58    0.48    0.24    0.17    0.15    0.13    0.10    0.11    0.11    0.11    0.10    0.07    0.58    0.47    0.44    0.42    0.38    0.69    0.69    0.78    0.68    0.54
 2022 170    50     0     0    10.9     8.9     2.0     0.0   16.72   14.74    0.07    0.00    0.00   16.72    4.38    1.27    0.00    0.37     0.3     0.3    0.29    0.28    0.59    0.61    0.71    0.61    0.49    0.24    0.17    0.15    0.13    0.10    0.11    0.11    0.11    0.10    0.07    0.61    0.47    0.44    0.42    0.38    0.70    0.72    0.82    0.71    0.56
 2022 171    51     0     0    11.2     9.3     2.0     0.0   17.33   15.36    0.07    0.00    0.00   17.33    4.68    1.27    0.00    0.42     0.3     0.3    0.29    0.29    0.58    0.65    0.75    0.64    0.51    0.24    0.16    0.14    0.13    0.10    0.11    0.11    0.11    0.10    0.07    0.66    0.46    0.44    0.42    0.38    0.69    0.75    0.86    0.74    0.58
 2022 172    52     0     0    11.5     9.6     2.0     0.0   17.97   16.02    0.07    0.00    0.00   17.97    5.01    1.27    0.00    0.47     0.3     0.3    0.30    0.29    0.55    0.68    0.79    0.68    0.54    0.23    0.16    0.14    0.12    0.10    0.10    0.10    0.11    0.10    0.07    0.71    0.46    0.43    0.42    0.39    0.66    0.79    0.90    0.78    0.60
 2022 173    53     0     0    11.8     9.8     1.9     0.0   18.59   16.65    0.07    0.00    0.00   18.59    5.38    1.27    0.00    0.52     0.3     0.3    0.29    0.29    0.52    0.71    0.83    0.71    0.56    0.23    0.15    0.14    0.12    0.10    0.10    0.10    0.11    0.10    0.07    0.75    0.45    0.43    0.42    0.38    0.63    0.81    0.94    0.81    0.63
 2022 174    54     0     0    12.0    10.0     1.9     0.0   19.15   17.20    0.07    0.00    0.00   19.15    5.75    1.27    0.00    0.55     0.3     0.3    0.29    0.28    0.48    0.71    0.87    0.74    0.58    0.23    0.15    0.14    0.12    0.10    0.11    0.10    0.11    0.10    0.07    0.78    0.44    0.42    0.41    0.38    0.59    0.81    0.97    0.84    0.65
 2022 175    55     0     0    12.1    10.2     2.0     0.0   19.67   17.72    0.07    0.00    0.00   19.67    6.10    1.27    0.00    0.58     0.3     0.3    0.29    0.28    0.44    0.69    0.90    0.77    0.60    0.23    0.15    0.13    0.13    0.10    0.11    0.11    0.11    0.10    0.07    0.82    0.43    0.41    0.41    0.38    0.55    0.79    1.01    0.87    0.66
 2022 176    56     0     0    12.3    10.3     2.0     0.0   20.17   18.21    0.07    0.00    0.00   20.17    6.44    1.27    0.00    0.62     0.3     0.3    0.28    0.28    0.40    0.64    0.94    0.80    0.62    0.23    0.15    0.13    0.13    0.10    0.11    0.11    0.11    0.10    0.07    0.85    0.43    0.41    0.41    0.38    0.51    0.75    1.04    0.90    0.68
 2022 177    57     0     0    12.4    10.4     2.0     0.0   20.61   18.64    0.07    0.00    0.00   20.61    6.78    1.27    0.00    0.64     0.3     0.3    0.28    0.28    0.36    0.59    0.96    0.82    0.63    0.24    0.15    0.13    0.13    0.11    0.11    0.11    0.11    0.10    0.07    0.88    0.42    0.41    0.41    0.38    0.47    0.69    1.07    0.92    0.70
 2022 178    58     0     0    12.5    10.5     2.0     0.0   21.03   19.05    0.07    0.00    0.00   21.03    7.10    1.27    0.00    0.67     0.3     0.3    0.28    0.27    0.32    0.53    0.98    0.85    0.65    0.24    0.15    0.13    0.13    0.11    0.11    0.11    0.11    0.10    0.07    0.90    0.42    0.40    0.40    0.38    0.43    0.64    1.09    0.95    0.72
 2022 179    59     0     0    12.6    10.6     2.0     0.0   21.45   19.47    0.07    0.00    0.00   21.45    7.41    1.27    0.00    0.69     0.3     0.3    0.27    0.28    0.29    0.47    1.00    0.87    0.66    0.24    0.15    0.13    0.13    0.11    0.11    0.11    0.11    0.10    0.07    0.93    0.42    0.40    0.40    0.39    0.41    0.58    1.11    0.97    0.73
 2022 180    60     0     0    12.7    10.7     2.0     0.0   21.85   19.86    0.07    0.00    0.00   21.85    7.73    1.27    0.00    0.71     0.3     0.3    0.27    0.27    0.28    0.42    1.00    0.90    0.68    0.24    0.15    0.13    0.13    0.11    0.11    0.11    0.11    0.10    0.07    0.95    0.42    0.40    0.40    0.39    0.39    0.53    1.11    1.00    0.75
 2022 181    61     0     0    12.8    10.8     2.0     0.0   22.26   20.27    0.07    0.00    0.00   22.26    8.04    1.27    0.00    0.73     0.3     0.3    0.27    0.27    0.28    0.38    0.99    0.92    0.70    0.24    0.15    0.13    0.13    0.11    0.11    0.11    0.11    0.10    0.07    0.98    0.42    0.40    0.40    0.39    0.39    0.49    1.10    1.02    0.76
 2022 182    62     0     0    12.9    10.9     2.0     0.0   22.70   20.70    0.07    0.00    0.00   22.70    8.35    1.27    0.00    0.76     0.3     0.3    0.27    0.28    0.28    0.34    0.97    0.95    0.71    0.25    0.15    0.13    0.13    0.11    0.12    0.11    0.11    0.10    0.07    1.00    0.42    0.40    0.40    0.39    0.40    0.45    1.08    1.05    0.78
 2022 183    63     0     0    13.0    11.0     2.0     0.0   23.17   21.17    0.07    0.00    0.00   23.17    8.68    1.27    0.00    0.18     0.5     0.3    0.27    0.28    0.28    0.31    0.96    0.98    0.73    0.25    0.15    0.13    0.13    0.11    0.12    0.11    0.11    0.10    0.07    0.43    0.68    0.40    0.40    0.39    0.40    0.42    1.06    1.08    0.80
 2022 184    64     0     0    12.9    10.8     2.0     0.0   23.72   21.70    0.07    0.00    0.00   23.72    9.37    1.27    0.00    0.27     0.3     0.3    0.26    0.27    0.28    0.33    0.93    0.99    0.74    0.26    0.15    0.13    0.13    0.11    0.12    0.11    0.11    0.10    0.07    0.54    0.47    0.42    0.39    0.38    0.40    0.44    1.04    1.09    0.81
 2022 185    65     0     0    13.0    11.0     2.0     0.0   24.30   22.28    0.07    0.00    0.00   24.30    9.80    1.27    0.00    0.37     0.3     0.3    0.26    0.27    0.28    0.34    0.90    1.01    0.76    0.26    0.16    0.13    0.13    0.11    0.12    0.11    0.11    0.10    0.07    0.63    0.46    0.45    0.39    0.38    0.40    0.45    1.00    1.11    0.83
 2022 186    66     0     0    13.1    11.1     2.0     0.0   24.89   22.87    0.07    0.00    0.00   24.89   10.31    1.27    0.00    0.29     0.3     0.4    0.27    0.27    0.28    0.35    0.86    1.02    0.77    0.24    0.16    0.13    0.12    0.11    0.12    0.12    0.11    0.10    0.07    0.53    0.45    0.52    0.40    0.38    0.40    0.47    0.97    1.13    0.84
 2022 187    67     0     0    13.1    11.1     2.0     0.0   25.49   23.47    0.07    0.00    0.00   25.49   10.85    1.27    0.00    0.35     0.3     0.3    0.28    0.27    0.28    0.35    0.82    1.04    0.79    0.25    0.16    0.13    0.12    0.11    0.12    0.12    0.11    0.10    0.07    0.60    0.45    0.47    0.41    0.38    0.41    0.47    0.93    1.14    0.85
 2022 188    68     0     0    13.2    11.2     2.0     0.0   26.11   24.09    0.07    0.00    0.00   26.11   11.39    1.27    0.00    0.31     0.3     0.3    0.30    0.27    0.28    0.34    0.79    1.06    0.80    0.23    0.16    0.13    0.12    0.11    0.13    0.12    0.11    0.10    0.07    0.55    0.46    0.46    0.42    0.38    0.41    0.46    0.90    1.17    0.87
 2022 189    69     0     0    13.3    11.3     2.0     0.0   26.75   24.71    0.07    0.00    0.00   26.75   11.93    1.27    0.00    0.33     0.3     0.3    0.32    0.27    0.28    0.33    0.76    1.08    0.82    0.25    0.16    0.14    0.12    0.11    0.13    0.12    0.11    0.10    0.07    0.58    0.44    0.42    0.45    0.38    0.41    0.45    0.87    1.19    0.89
 2022 190    70     0     0    13.4    11.4     2.0     0.0   27.40   25.36    0.07    0.00    0.00   27.40   12.46    1.27    0.00    0.40     0.3     0.3    0.31    0.27    0.28    0.33    0.73    1.10    0.84    0.24    0.16    0.14    0.12    0.11    0.13    0.12    0.11    0.10    0.07    0.64    0.46    0.43    0.44    0.37    0.41    0.45    0.84    1.20    0.90
 2022 191    71     0     0    13.5    11.4     2.0     0.0   28.05   26.01    0.07    0.00    0.00   28.05   13.04    1.27    0.00    0.42     0.3     0.3    0.30    0.26    0.28    0.33    0.71    1.11    0.85    0.23    0.16    0.14    0.12    0.11    0.13    0.12    0.11    0.11    0.07    0.65    0.48    0.44    0.42    0.37    0.41    0.46    0.82    1.21    0.92
 2022 192    72     0     0    13.5    11.5     2.0     0.0   28.70   26.66    0.07    0.00    0.00   28.70   13.63    1.27    0.00    0.45     0.3     0.3    0.30    0.26    0.28    0.33    0.69    1.11    0.86    0.22    0.16    0.14    0.12    0.11    0.13    0.13    0.11    0.11    0.07    0.67    0.47    0.44    0.42    0.37    0.41    0.46    0.80    1.21    0.93
 2022 193    73     0     0    13.6    11.5     2.0     0.0   29.33   27.28    0.07    0.00    0.00   29.33   14.23    1.27    0.00    0.35     0.3     0.3    0.29    0.27    0.28    0.31    0.66    1.12    0.88    0.22    0.16    0.14    0.12    0.11    0.13    0.13    0.12    0.11    0.07    0.57    0.48    0.44    0.41    0.38    0.41    0.44    0.77    1.23    0.95
 2022 194    74     0     0    13.6    11.5     2.1     0.0   29.95   27.89    0.07    0.00    0.00   29.95   14.81    1.27    0.00    0.33     0.3     0.3    0.29    0.27    0.28    0.30    0.62    1.11    0.90    0.23    0.17    0.14    0.12    0.11    0.13    0.13    0.12    0.11    0.07    0.56    0.48    0.44    0.41    0.38    0.41    0.42    0.74    1.22    0.97
 2022 195    75     0     0    13.6    11.5     2.1     0.0   30.56   28.50    0.07    0.00    0.00   30.56   15.40    1.27    0.00    0.33     0.3     0.3    0.29    0.27    0.28    0.28    0.59    1.09    0.92    0.23    0.17    0.14    0.12    0.11    0.13    0.13    0.12    0.11    0.07    0.56    0.48    0.44    0.41    0.38    0.41    0.41    0.71    1.20    0.99