*SOIL WATER DAILY OUTPUT FILE

*DSSAT Cropping System Model Ver. 4.8.2.000 -release  FEB 07, 2025 20:08:35

*RUN   1        : silt_loam_13in_irr        MZCER048 UNLI2201    1
 MODEL          : MZCER048 - Maize
 EXPERIMENT     : UNLI2201 MZ IRRIGATED MAIZE PRODUCTION
 DATA PATH      :
 TREATMENT  1   : silt_loam_13in_irr        MZCER048
  
!                                                                                                                                   Soil water content (mm3/mm3) by soil depth (cm):
!                                                                                                                                   0-5    5-15   15-23   23-38   38-53   53-61   61-69   69-84   84-99  99-114 114-130 130-145 145-160
@YEAR DOY   DAS    SWTD    SWXD    ROFC    DRNC    PREC    IR#C    IRRC   LATFC    DTWT    MWTD    TDFD    TDFC    ROFD    ROSD    SW1D    SW2D    SW3D    SW4D    SW5D    SW6D    SW7D    SW8D    SW9D   SW10D   SW11D   SW12D   SW13D
 2022 120     0     298     208       0       0       0       0       0       0     160    0.00     0.0     0.0    0.00    0.00   0.200   0.207   0.210   0.210   0.170   0.150   0.150   0.190   0.180   0.180   0.180   0.200   0.190
 2022 121     1     297     207       0       0       0       0       0       0     160    0.00     0.0     0.0    0.00    0.00   0.185   0.206   0.210   0.210   0.170   0.150   0.150   0.190   0.180   0.180   0.180   0.200   0.190
 2022 122     2     330     240       3       0      37       0       0       0     160    0.00     0.0     0.0    2.93    0.00   0.385   0.346   0.279   0.224   0.176   0.154   0.153   0.190   0.180   0.180   0.180   0.200   0.190
 2022 123     3     314     225       3      13      37       0       0       0     160    0.00     0.0     0.0    0.00    0.00   0.292   0.284   0.248   0.216   0.172   0.152   0.152   0.189   0.179   0.179   0.179   0.199   0.189
 2022 124     4     319     229       3      13      42       0       0       0     160    0.00     0.0     0.0    0.00    0.00   0.323   0.273   0.266   0.225   0.177   0.156   0.154   0.190   0.179   0.179   0.179   0.199   0.189
 2022 125     5     320     230       3      13      45       0       0       0     160    0.00     0.0     0.0    0.00    0.00   0.301   0.262   0.270   0.231   0.182   0.163   0.157   0.192   0.178   0.179   0.179   0.199   0.189
 2022 126     6     306     216       3      20      45       0       0       0     160    0.00     0.0     0.0    0.00    0.00   0.231   0.230   0.239   0.218   0.175   0.156   0.152   0.190   0.178   0.179   0.179   0.199   0.189
 2022 127     7     312     222       3      20      56       0       0       0     160    0.00     0.0     0.0    0.00    0.00   0.339   0.240   0.243   0.219   0.176   0.158   0.154   0.190   0.177   0.177   0.177   0.197   0.188
 2022 128     8     302     212       3      25      56       0       0       0     160    0.00     0.0     0.0    0.00    0.00   0.251   0.217   0.223   0.211   0.171   0.153   0.150   0.188   0.178   0.179   0.179   0.199   0.189
 2022 129     9     321     231       3      25      56       1      25       0     160    0.00     0.0     0.0    0.00    0.00   0.352   0.313   0.270   0.221   0.174   0.155   0.151   0.187   0.177   0.177   0.177   0.197   0.188
 2022 130    10     340     250       3      25      56       2      51       0     160    0.00     0.0     0.0    0.00    0.00   0.348   0.366   0.364   0.247   0.186   0.165   0.156   0.188   0.175   0.176   0.176   0.196   0.187
 2022 131    11     359     269       3      25      56       3      76       0     160    0.00     0.0     0.0    0.00    0.00   0.353   0.366   0.372   0.310   0.219   0.196   0.171   0.192   0.176   0.175   0.175   0.195   0.186
 2022 132    12     379     290       3      25      56       4     102       0     160    0.00     0.0     0.0    0.00    0.00   0.361   0.369   0.374   0.352   0.256   0.241   0.198   0.201   0.181   0.175   0.174   0.194   0.185
 2022 133    13     399     309       3      25      56       5     127       0     160    0.00     0.0     0.0    0.00    0.00   0.358   0.368   0.373   0.379   0.288   0.293   0.236   0.213   0.190   0.182   0.173   0.193   0.184
 2022 134    14     419     329       3      25      56       6     152       0     160    0.00     0.0     0.0    0.00    0.00   0.360   0.369   0.374   0.387   0.319   0.345   0.281   0.231   0.201   0.189   0.179   0.192   0.183
 2022 135    15     439     349       3      25      57       7     178       0     160    0.00     0.0     0.0    0.00    0.00   0.356   0.368   0.373   0.387   0.346   0.344   0.345   0.262   0.221   0.201   0.187   0.197   0.182
 2022 136    16     432     342       3      25      58       7     178       0     160    0.00     0.0     0.0    0.00    0.00   0.274   0.309   0.356   0.343   0.327   0.343   0.344   0.293   0.245   0.218   0.198   0.205   0.185
 2022 137    17     373     283       3      78      58       7     178       0     160    0.00     0.0     0.0    0.00    0.00   0.220   0.258   0.290   0.284   0.260   0.263   0.263   0.249   0.217   0.201   0.189   0.202   0.189
 2022 138    18     337     247       3     108      58       7     178       0     160    0.00     0.0     0.0    0.00    0.00   0.186   0.226   0.250   0.249   0.220   0.215   0.215   0.223   0.200   0.191   0.184   0.200   0.189
 2022 139    19     316     226       3     123      58       7     178       0     160    0.00     0.0     0.0    0.00    0.00   0.165   0.209   0.228   0.229   0.197   0.186   0.187   0.208   0.190   0.185   0.181   0.199   0.189
 2022 140    20     307     217       3     130      58       7     178       0     160    0.00     0.0     0.0    0.00    0.00   0.160   0.206   0.219   0.220   0.185   0.171   0.171   0.200   0.186   0.183   0.181   0.200   0.190
 2022 141    21     300     210       3     134      58       7     178       0     160    0.00     0.0     0.0    0.00    0.00   0.151   0.202   0.212   0.214   0.178   0.162   0.162   0.195   0.182   0.182   0.180   0.199   0.189
 2022 142    22     295     205       3     136      58       7     178       0     160    0.00     0.0     0.0    0.00    0.00   0.139   0.195   0.208   0.209   0.173   0.155   0.156   0.191   0.181   0.181   0.179   0.199   0.189
 2022 143    23     330     240       3     136      68       8     203       0     160    0.00     0.0     0.0    0.00    0.00   0.384   0.340   0.275   0.223   0.177   0.158   0.157   0.192   0.182   0.180   0.179   0.199   0.189
 2022 144    24     356     266       3     136      71       9     229       0     160    0.00     0.0     0.0    0.00    0.00   0.377   0.376   0.379   0.277   0.200   0.178   0.165   0.194   0.183   0.182   0.178   0.198   0.189
 2022 145    25     376     286       3     136      71      10     254       0     160    0.00     0.0     0.0    0.00    0.00   0.354   0.367   0.373   0.342   0.241   0.220   0.186   0.199   0.185   0.183   0.180   0.197   0.188
 2022 146    26     394     304       3     136      71      11     279       0     160    0.00     0.0     0.0    0.00    0.00   0.351   0.365   0.372   0.370   0.275   0.271   0.219   0.209   0.189   0.185   0.181   0.198   0.187
 2022 147    27     412     322       3     136      71      12     305       0     160    0.00     0.0     0.0    0.00    0.00   0.351   0.365   0.372   0.385   0.302   0.321   0.258   0.223   0.198   0.189   0.183   0.200   0.186
 2022 148    28     431     341       3     136      71      13     330       0     160    0.00     0.0     0.0    0.00    0.00   0.356   0.367   0.373   0.386   0.326   0.344   0.317   0.244   0.212   0.198   0.188   0.203   0.187
 2022 149    29     450     360       3     136      71      14     356       0     160    0.00     0.0     0.0    0.00    0.00   0.360   0.369   0.374   0.387   0.345   0.344   0.345   0.281   0.235   0.212   0.196   0.208   0.191
 2022 150    30     452     362       3     137      77      14     356       0     160    0.00     0.0     0.0    0.00    0.00   0.361   0.328   0.367   0.348   0.329   0.345   0.346   0.306   0.259   0.230   0.208   0.217   0.197
 2022 151    31     387     297       3     198      77      14     356       0     160    0.00     0.0     0.0    0.00    0.00   0.280   0.273   0.300   0.290   0.263   0.266   0.266   0.258   0.226   0.209   0.196   0.209   0.194
 2022 152    32     347     257       3     233      77      14     356       0     160    0.00     0.0     0.0    0.00    0.00   0.227   0.238   0.258   0.254   0.224   0.217   0.218   0.229   0.206   0.196   0.189   0.205   0.191
 2022 153    33     322     232       3     253      77      14     356       0     160    0.00     0.0     0.0    0.00    0.00   0.193   0.216   0.232   0.232   0.199   0.188   0.189   0.211   0.194   0.188   0.184   0.201   0.190
 2022 154    34     307     217       3     262      77      14     356       0     160    0.00     0.0     0.0    0.00    0.00   0.169   0.202   0.216   0.219   0.185   0.171   0.171   0.201   0.187   0.184   0.181   0.200   0.189
 2022 155    35     297     207       3     266      77      14     356       0     160    0.00     0.0     0.0    0.00    0.00   0.147   0.191   0.206   0.210   0.176   0.160   0.160   0.194   0.182   0.180   0.180   0.199   0.189
 2022 156    36     291     201       3     267      77      14     356       0     160    0.00     0.0     0.0    0.00    0.00   0.130   0.181   0.199   0.206   0.171   0.154   0.155   0.191   0.180   0.179   0.179   0.199   0.189
 2022 157    37     286     196       3     267      78      14     356       0     160    0.00     0.0     0.0    0.00    0.00   0.131   0.170   0.191   0.201   0.168   0.150   0.152   0.190   0.179   0.177   0.177   0.197   0.188
 2022 158    38     296     206       3     267      90      14     356       0     160    0.00     0.0     0.0    0.00    0.00   0.302   0.198   0.188   0.199   0.167   0.150   0.151   0.189   0.178   0.177   0.177   0.197   0.187
 2022 159    39     290     200       3     267      90      14     356       0     160    0.00     0.0     0.0    0.00    0.00   0.225   0.194   0.194   0.194   0.165   0.147   0.149   0.187   0.176   0.175   0.175   0.195   0.186
 2022 160    40     285     196       3     267      90      14     356       0     160    0.00     0.0     0.0    0.00    0.00   0.198   0.191   0.188   0.191   0.163   0.146   0.148   0.185   0.175   0.174   0.174   0.194   0.185
 2022 161    41     284     194       3     267      90      14     356       0     160    0.00     0.0     0.0    0.00    0.00   0.179   0.187   0.184   0.190   0.163   0.146   0.148   0.185   0.175   0.174   0.174   0.194   0.185
 2022 162    42     282     192       3     267      90      14     356       0     160    0.00     0.0     0.0    0.00    0.00   0.161   0.182   0.180   0.188   0.163   0.146   0.148   0.185   0.175   0.174   0.174   0.194   0.185
 2022 163    43     280     190       3     267      90      14     356       0     160    0.00     0.0     0.0    0.00    0.00   0.144   0.177   0.176   0.187   0.162   0.146   0.148   0.185   0.175   0.174   0.174   0.194   0.185
 2022 164    44     277     187       3     267      90      14     356       0     160    0.00     0.0     0.0    0.00    0.00   0.127   0.170   0.170   0.185   0.162   0.146   0.148   0.185   0.175   0.174   0.174   0.194   0.185
 2022 165    45     275     185       3     267      90      14     356       0     160    0.00     0.0     0.0    0.00    0.00   0.114   0.164   0.166   0.183   0.162   0.146   0.148   0.185   0.175   0.174   0.174   0.194   0.185
 2022 166    46     273     184       3     267      90      14     356       0     160    0.00     0.0     0.0    0.00    0.00   0.105   0.158   0.160   0.180   0.161   0.146   0.148   0.185   0.175   0.174   0.174   0.194   0.185
 2022 167    47     271     182       3     267      90      14     356       0     160    0.00     0.0     0.0    0.00    0.00   0.097   0.151   0.155   0.178   0.161   0.146   0.148   0.185   0.175   0.174   0.174   0.194   0.185
 2022 168    48     269     179       3     267      90      14     356       0     160    0.00     0.0     0.0    0.00    0.00   0.091   0.143   0.147   0.175   0.159   0.146   0.148   0.185   0.175   0.174   0.174   0.194   0.185
 2022 169    49     267     177       3     267      90      14     356       0     160    0.00     0.0     0.0    0.00    0.00   0.085   0.135   0.140   0.171   0.158   0.146   0.148   0.185   0.175   0.174   0.174   0.194   0.185
 2022 170    50     264     174       3     267      90      14     356       0     160    0.00     0.0     0.0    0.00    0.00   0.079   0.127   0.132   0.168   0.157   0.145   0.148   0.185   0.175   0.174   0.174   0.194   0.185
 2022 171    51     262     172       3     267      90      14     356       0     160    0.00     0.0     0.0    0.00    0.00   0.074   0.120   0.126   0.165   0.156   0.145   0.148   0.185   0.175   0.174   0.174   0.194   0.185
 2022 172    52     261     171       3     267      90      14     356       0     160    0.00     0.0     0.0    0.00    0.00   0.070   0.116   0.122   0.163   0.155   0.145   0.147   0.185   0.175   0.174   0.174   0.194   0.185
 2022 173    53     259     169       3     267      90      14     356       0     160    0.00     0.0     0.0    0.00    0.00   0.066   0.111   0.115   0.160   0.153   0.144   0.147   0.185   0.175   0.174   0.174   0.194   0.185
 2022 174    54     256     166       3     267      90      14     356       0     160    0.00     0.0     0.0    0.00    0.00   0.062   0.107   0.107   0.155   0.151   0.143   0.147   0.185   0.175   0.174   0.174   0.194   0.185
 2022 175    55     254     165       3     267      91      14     356       0     160    0.00     0.0     0.0    0.00    0.00   0.065   0.104   0.103   0.150   0.148   0.142   0.147   0.185   0.175   0.174   0.174   0.194   0.185
 2022 176    56     253     163       3     267      91      14     356       0     160    0.00     0.0     0.0    0.00    0.00   0.061   0.101   0.101   0.145   0.146   0.141   0.146   0.185   0.175   0.174   0.174   0.194   0.185
 2022 177    57     251     161       3     267      91      14     356       0     160    0.00     0.0     0.0    0.00    0.00   0.058   0.100   0.099   0.140   0.143   0.140   0.145   0.185   0.175   0.174   0.174   0.194   0.185
 2022 178    58     249     159       3     267      91      14     356       0     160    0.00     0.0     0.0    0.00    0.00   0.055   0.098   0.097   0.133   0.140   0.138   0.144   0.185   0.175   0.174   0.174   0.194   0.185
 2022 179    59     246     156       3     267      91      14     356       0     160    0.00     0.0     0.0    0.00    0.00   0.052   0.096   0.095   0.126   0.136   0.136   0.143   0.185   0.175   0.174   0.174   0.194   0.185
 2022 180    60     244     154       3     267      91      14     356       0     160    0.00     0.0     0.0    0.00    0.00   0.050   0.094   0.093   0.118   0.132   0.134   0.142   0.184   0.175   0.174   0.174   0.194   0.185
 2022 181    61     242     152       3     267      91      14     356       0     160    0.00     0.0     0.0    0.00    0.00   0.047   0.093   0.092   0.113   0.128   0.132   0.140   0.184   0.175   0.174   0.174   0.194   0.185
 2022 182    62     240     150       3     267      91      14     356       0     160    0.00     0.0     0.0    0.00    0.00   0.045   0.092   0.091   0.107   0.125   0.131   0.139   0.184   0.175   0.174   0.174   0.194   0.185
 2022 183    63     260     170       3     267     117      14     356       0     160    0.00     0.0     0.0    0.00    0.00   0.366   0.174   0.088   0.099   0.120   0.127   0.136   0.182   0.173   0.173   0.173   0.193   0.184
 2022 184    64     261     171       3     267     125      14     356       0     160    0.00     0.0     0.0    0.00    0.00   0.345   0.212   0.104   0.096   0.116   0.124   0.134   0.180   0.172   0.172   0.172   0.192   0.183
 2022 185    65     253     163       3     267     125      14     356       0     160    0.00     0.0     0.0    0.00    0.00   0.244   0.188   0.137   0.092   0.111   0.121   0.131   0.178   0.170   0.170   0.171   0.190   0.181
 2022 186    66     274     184       4     267     154      14     356       0     160    0.00     0.0     0.0    1.36    0.00   0.350   0.301   0.209   0.094   0.107   0.118   0.128   0.176   0.169   0.169   0.169   0.189   0.180
 2022 187    67     271     181       4     267     155      14     356       0     160    0.00     0.0     0.0    0.00    0.00   0.294   0.272   0.240   0.106   0.105   0.117   0.127   0.175   0.168   0.168   0.169   0.189   0.180
 2022 188    68     277     187       4     267     166      14     356       0     160    0.00     0.0     0.0    0.00    0.00   0.361   0.272   0.257   0.123   0.102   0.115   0.126   0.174   0.167   0.168   0.168   0.188   0.179
 2022 189    69     270     180       4     267     166      14     356       0     160    0.00     0.0     0.0    0.00    0.00   0.263   0.229   0.225   0.165   0.099   0.112   0.123   0.172   0.166   0.166   0.167   0.187   0.178
 2022 190    70     262     172       4     267     166      14     356       0     160    0.00     0.0     0.0    0.00    0.00   0.205   0.202   0.205   0.175   0.095   0.109   0.121   0.170   0.164   0.165   0.166   0.185   0.177
 2022 191    71     255     165       4     267     168      14     356       0     160    0.00     0.0     0.0    0.00    0.00   0.190   0.189   0.189   0.167   0.091   0.106   0.118   0.167   0.162   0.164   0.165   0.184   0.176
 2022 192    72     251     161       4     267     168      14     356       0     160    0.00     0.0     0.0    0.00    0.00   0.176   0.181   0.181   0.163   0.090   0.105   0.117   0.167   0.162   0.164   0.165   0.184   0.176
 2022 193    73     248     158       4     267     168      14     356       0     160    0.00     0.0     0.0    0.00    0.00   0.158   0.173   0.173   0.159   0.089   0.104   0.116   0.167   0.162   0.164   0.165   0.184   0.176
 2022 194    74     245     155       4     267     168      14     356       0     160    0.00     0.0     0.0    0.00    0.00   0.147   0.164   0.165   0.155   0.088   0.102   0.115   0.166   0.162   0.164   0.165   0.184   0.176
 2022 195    75     241     151       4     267     168      14     356       0     160    0.00     0.0     0.0    0.00    0.00   0.128   0.152   0.154   0.149   0.087   0.100   0.113   0.166   0.162   0.164   0.165   0.184   0.176
 2022 196    76     237     147       4     267     168      14     356       0     160    0.00     0.0     0.0    0.00    0.00   0.114   0.144   0.146   0.145   0.086   0.099   0.112   0.165   0.162   0.164   0.165   0.184   0.176
 2022 197    77     235     145       4     267     168      14     356       0     160    0.00     0.0     0.0    0.00    0.00   0.105   0.137   0.140   0.142   0.085   0.098   0.111   0.165   0.161   0.164   0.165   0.184   0.176
 2022 198    78     232     142       4     267     168      14     356       0     160    0.00     0.0     0.0    0.00    0.00   0.098   0.128   0.131   0.137   0.084   0.096   0.110   0.164   0.161   0.164   0.165   0.184   0.176
 2022 199    79     228     138       4     267     168      14     356       0     160    0.00     0.0     0.0    0.00    0.00   0.091   0.117   0.120   0.132   0.083   0.094   0.108   0.164   0.161   0.164   0.165   0.184   0.176
 2022 200    80     225     135       4     267     168      14     356       0     160    0.00     0.0     0.0    0.00    0.00   0.085   0.110   0.111   0.126   0.083   0.092   0.107   0.163   0.160   0.164   0.165   0.184   0.176
 2022 201    81     222     132       4     267     168      14     356       0     160    0.00     0.0     0.0    0.00    0.00   0.079   0.105   0.104   0.120   0.082   0.090   0.105   0.162   0.160   0.163   0.165   0.184   0.176
 2022 202    82     232     142       4     267     186      14     356       0     160    0.00     0.0     0.0    0.00    0.00   0.319   0.137   0.098   0.109   0.080   0.086   0.101   0.159   0.157   0.162   0.163   0.183   0.175
 2022 203    83     225     135       4     267     186      14     356       0     160    0.00     0.0     0.0    0.00    0.00   0.230   0.145   0.094   0.101   0.078   0.083   0.098   0.157   0.155   0.161   0.162   0.181   0.173
 2022 204    84     218     128       4     267     186      14     356       0     160    0.00     0.0     0.0    0.00    0.00   0.184   0.134   0.090   0.096   0.076   0.080   0.095   0.154   0.153   0.159   0.161   0.180   0.172
 2022 205    85     215     125       4     267     186      14     356       0     160    0.00     0.0     0.0    0.00    0.00   0.162   0.124   0.090   0.095   0.076   0.079   0.093   0.153   0.153   0.159   0.161   0.180   0.172
 2022 206    86     219     129       4     267     191      14     356       0     160    0.00     0.0     0.0    0.00    0.00   0.237   0.133   0.089   0.094   0.076   0.079   0.093   0.153   0.152   0.159   0.160   0.180   0.172
 2022 207    87     216     126       4     267     191      14     356       0     160    0.00     0.0     0.0    0.00    0.00   0.200   0.130   0.087   0.092   0.075   0.078   0.091   0.151   0.151   0.158   0.159   0.179   0.171
 2022 208    88     236     146       4     267     215      14     356       0     160    0.00     0.0     0.0    0.17    0.00   0.362   0.239   0.121   0.090   0.074   0.077   0.089   0.150   0.150   0.157   0.159   0.178   0.171
 2022 209    89     231     141       4     267     216      14     356       0     160    0.00     0.0     0.0    0.00    0.00   0.280   0.232   0.145   0.089   0.073   0.076   0.088   0.148   0.149   0.156   0.158   0.177   0.170
 2022 210    90     228     138       4     267     216      14     356       0     160    0.00     0.0     0.0    0.00    0.00   0.227   0.212   0.171   0.087   0.072   0.075   0.087   0.147   0.148   0.155   0.157   0.176   0.169
 2022 211    91     221     131       4     267     216      14     356       0     160    0.00     0.0     0.0    0.00    0.00   0.185   0.193   0.168   0.085   0.071   0.073   0.084   0.145   0.146   0.154   0.156   0.175   0.168
 2022 212    92     219     129       4     267     216      14     356       0     160    0.00     0.0     0.0    0.00    0.00   0.166   0.186   0.162   0.085   0.071   0.073   0.083   0.144   0.146   0.154   0.156   0.175   0.168
 2022 213    93     216     126       4     267     216      14     356       0     160    0.00     0.0     0.0    0.00    0.00   0.148   0.178   0.154   0.084   0.071   0.073   0.083   0.144   0.145   0.154   0.156   0.175   0.168
 2022 214    94     215     125       4     267     217      14     356       0     160    0.00     0.0     0.0    0.00    0.00   0.159   0.169   0.146   0.084   0.071   0.072   0.082   0.143   0.145   0.154   0.156   0.175   0.168
 2022 215    95     212     122       4     267     217      14     356       0     160    0.00     0.0     0.0    0.00    0.00   0.142   0.162   0.139   0.084   0.071   0.072   0.081   0.143   0.144   0.154   0.156   0.175   0.168
 2022 216    96     210     120       4     267     217      14     356       0     160    0.00     0.0     0.0    0.00    0.00   0.127   0.155   0.132   0.083   0.070   0.072   0.080   0.142   0.144   0.153   0.156   0.175   0.168
 2022 217    97     208     118       4     267     217      14     356       0     160    0.00     0.0     0.0    0.00    0.00   0.113   0.147   0.125   0.083   0.070   0.071   0.080   0.141   0.144   0.153   0.156   0.175   0.168
 2022 218    98     206     116       4     267     217      14     356       0     160    0.00     0.0     0.0    0.00    0.00   0.105   0.140   0.119   0.083   0.070   0.071   0.079   0.141   0.143   0.153   0.156   0.175   0.168
 2022 219    99     206     116       4     267     218      14     356       0     160    0.00     0.0     0.0    0.00    0.00   0.113   0.138   0.117   0.082   0.070   0.071   0.079   0.141   0.143   0.153   0.156   0.175   0.168
 2022 220   100     204     114       4     267     218      14     356       0     160    0.00     0.0     0.0    0.00    0.00   0.104   0.131   0.111   0.082   0.070   0.071   0.079   0.140   0.143   0.153   0.156   0.175   0.168
 2022 221   101     202     112       4     267     218      14     356       0     160    0.00     0.0     0.0    0.00    0.00   0.097   0.123   0.107   0.082   0.070   0.071   0.078   0.140   0.143   0.153   0.156   0.175   0.168
 2022 222   102     200     110       4     267     218      14     356       0     160    0.00     0.0     0.0    0.00    0.00   0.090   0.114   0.104   0.081   0.070   0.070   0.077   0.139   0.142   0.153   0.156   0.175   0.168
 2022 223   103     198     109       4     267     218      14     356       0     160    0.00     0.0     0.0    0.00    0.00   0.084   0.108   0.101   0.081   0.069   0.070   0.077   0.138   0.141   0.153   0.156   0.175   0.168
 2022 224   104     197     107       4     267     218      14     356       0     160    0.00     0.0     0.0    0.00    0.00   0.079   0.103   0.098   0.080   0.069   0.069   0.075   0.136   0.140   0.152   0.155   0.175   0.168
 2022 225   105     195     105       4     267     218      14     356       0     160    0.00     0.0     0.0    0.00    0.00   0.074   0.099   0.095   0.080   0.069   0.069   0.075   0.135   0.139   0.152   0.155   0.175   0.168
 2022 226   106     194     104       4     267     218      14     356       0     160    0.00     0.0     0.0    0.00    0.00   0.070   0.097   0.093   0.079   0.068   0.068   0.074   0.133   0.138   0.151   0.155   0.175   0.168
 2022 227   107     204     114       4     267     230      14     356       0     160    0.00     0.0     0.0    0.00    0.00   0.254   0.114   0.092   0.079   0.068   0.068   0.073   0.132   0.137   0.151   0.155   0.175   0.168
 2022 228   108     203     113       4     267     230      14     356       0     160    0.00     0.0     0.0    0.00    0.00   0.227   0.122   0.091   0.078   0.068   0.067   0.073   0.131   0.137   0.150   0.154   0.175   0.168
 2022 229   109     199     109       4     267     230      14     356       0     160    0.00     0.0     0.0    0.00    0.00   0.193   0.120   0.089   0.077   0.067   0.067   0.072   0.129   0.136   0.149   0.153   0.174   0.167
 2022 230   110     197     107       4     267     230      14     356       0     160    0.00     0.0     0.0    0.00    0.00   0.174   0.115   0.089   0.077   0.067   0.066   0.072   0.129   0.135   0.149   0.153   0.174   0.167
 2022 231   111     196     106       4     267     230      14     356       0     160    0.00     0.0     0.0    0.00    0.00   0.156   0.111   0.088   0.077   0.067   0.066   0.071   0.128   0.135   0.149   0.153   0.174   0.167
 2022 232   112     194     104       4     267     230      14     356       0     160    0.00     0.0     0.0    0.00    0.00   0.139   0.108   0.088   0.076   0.067   0.066   0.071   0.128   0.134   0.149   0.153   0.174   0.167
 2022 233   113     193     103       4     267     230      14     356       0     160    0.00     0.0     0.0    0.00    0.00   0.122   0.105   0.087   0.076   0.067   0.066   0.071   0.127   0.134   0.149   0.153   0.174   0.167
 2022 234   114     191     101       4     267     230      14     356       0     160    0.00     0.0     0.0    0.00    0.00   0.109   0.103   0.087   0.076   0.066   0.066   0.070   0.126   0.133   0.148   0.152   0.174   0.167
 2022 235   115     190     100       4     267     230      14     356       0     160    0.00     0.0     0.0    0.00    0.00   0.100   0.100   0.086   0.076   0.066   0.065   0.070   0.124   0.132   0.148   0.152   0.173   0.167
 2022 236   116     189      99       4     267     230      14     356       0     160    0.00     0.0     0.0    0.00    0.00   0.093   0.098   0.085   0.075   0.066   0.065   0.070   0.123   0.132   0.148   0.152   0.173   0.167
 2022 237   117     188      98       4     267     230      14     356       0     160    0.00     0.0     0.0    0.00    0.00   0.087   0.096   0.085   0.075   0.066   0.065   0.069   0.122   0.131   0.147   0.151   0.173   0.167
 2022 238   118     187      97       4     267     230      14     356       0     160    0.00     0.0     0.0    0.00    0.00   0.081   0.095   0.084   0.075   0.066   0.064   0.069   0.121   0.130   0.147   0.151   0.173   0.167
 2022 239   119     186      96       4     267     230      14     356       0     160    0.00     0.0     0.0    0.00    0.00   0.076   0.094   0.084   0.074   0.065   0.064   0.068   0.119   0.129   0.147   0.151   0.173   0.167
 2022 240   120     185      95       4     267     230      14     356       0     160    0.00     0.0     0.0    0.00    0.00   0.072   0.092   0.083   0.074   0.065   0.064   0.068   0.118   0.128   0.146   0.150   0.173   0.167
 2022 241   121     184      94       4     267     230      14     356       0     160    0.00     0.0     0.0    0.00    0.00   0.067   0.091   0.083   0.074   0.065   0.064   0.068   0.116   0.127   0.146   0.150   0.173   0.167
 2022 242   122     183      93       4     267     230      14     356       0     160    0.00     0.0     0.0    0.00    0.00   0.064   0.090   0.082   0.074   0.065   0.063   0.067   0.115   0.126   0.145   0.150   0.173   0.167
 2022 243   123     183      93       4     267     232      14     356       0     160    0.00     0.0     0.0    0.00    0.00   0.089   0.089   0.082   0.073   0.065   0.063   0.067   0.114   0.125   0.145   0.149   0.173   0.167