*SOIL-PLANT-ATMOSPHERE MODULE OUTPUT FILE

*DSSAT Cropping System Model Ver. 4.8.2.000 -release  FEB 07, 2025 20:08:35

*RUN   1        : silt_loam_13in_irr        MZCER048 UNLI2201    1
 MODEL          : MZCER048 - Maize
 EXPERIMENT     : UNLI2201 MZ IRRIGATED MAIZE PRODUCTION
 DATA PATH      :
 TREATMENT  1   : silt_loam_13in_irr        MZCER048
  
!                                                                                                                                                                                        Soil evaporation (mm/d) by soil depth (cm):
!                                                                                                                                                                                        0-5    5-15   15-23   23-38   38-53   53-61   61-69   69-84   84-99  99-160
@YEAR DOY   DAS   SRAA  TMAXA  TMINA    REFA    EOAA    EOPA    EOSA    ETAA    EPAA    ESAA    EFAA    EMAA    EOAC    ETAC    EPAC    ESAC    EFAC    EMAC    KCAA    KBSA    KEAA    ES1D    ES2D    ES3D    ES4D    ES5D    ES6D    ES7D    ES8D    ES9D  ES10D   TRWUD   TWUPD
 2022 121     1  23.70  16.20   3.30 -99.000   4.768   0.000   4.768   0.931   0.000   0.931   0.000   0.000    4.77    0.93    0.00    0.93    0.00    0.00 -99.000 -99.000 -99.000   0.772   0.102   0.023   0.017   0.006   0.002   0.001   0.002   0.002   0.003   0.000   0.000
 2022 122     2   3.80   9.10   0.50 -99.000   0.658   0.000   0.658   0.658   0.000   0.658   0.000   0.000    5.43    1.59    0.00    1.59    0.00    0.00 -99.000 -99.000 -99.000   0.177   0.130   0.058   0.070   0.042   0.017   0.015   0.032   0.027   0.089   0.000   0.000
 2022 123     3  17.50  11.50  -2.30 -99.000   3.248   0.000   3.248   3.248   0.000   3.248   0.000   0.000    8.67    4.84    0.00    4.84    0.00    0.00 -99.000 -99.000 -99.000   0.918   0.652   0.286   0.335   0.200   0.081   0.074   0.153   0.130   0.420   0.000   0.000
 2022 124     4   3.60   8.10   4.60 -99.000   0.665   0.000   0.665   0.665   0.000   0.665   0.000   0.000    9.34    5.50    0.00    5.50    0.00    0.00 -99.000 -99.000 -99.000   0.189   0.127   0.061   0.070   0.042   0.017   0.015   0.032   0.027   0.087   0.000   0.000
 2022 125     5  11.10  13.80   6.30 -99.000   2.310   0.000   2.310   2.310   0.000   2.310   0.000   0.000   11.65    7.81    0.00    7.81    0.00    0.00 -99.000 -99.000 -99.000   0.661   0.421   0.218   0.250   0.148   0.060   0.053   0.110   0.092   0.297   0.000   0.000
 2022 126     6  24.40  26.90   2.80 -99.000   5.861   0.000   5.861   5.861   0.000   5.861   0.000   0.000   17.51   13.67    0.00   13.67    0.00    0.00 -99.000 -99.000 -99.000   1.495   1.043   0.550   0.672   0.404   0.165   0.147   0.306   0.255   0.825   0.000   0.000
 2022 127     7  21.80  27.30   8.40 -99.000   5.393   0.000   5.393   5.393   0.000   5.393   0.000   0.000   22.90   19.07    0.00   19.07    0.00    0.00 -99.000 -99.000 -99.000   1.545   0.922   0.482   0.590   0.355   0.146   0.130   0.269   0.224   0.728   0.000   0.000
 2022 128     8  22.40  24.60  11.50 -99.000   5.691   0.000   5.691   5.691   0.000   5.691   0.000   0.000   28.59   24.76    0.00   24.76    0.00    0.00 -99.000 -99.000 -99.000   1.591   0.953   0.495   0.631   0.383   0.157   0.141   0.294   0.247   0.800   0.000   0.000
 2022 129     9  26.00  23.00  10.30 -99.000   6.233   0.000   6.233   6.233   0.000   6.233   0.000   0.000   34.83   30.99    0.00   30.99    0.00    0.00 -99.000 -99.000 -99.000   1.832   1.169   0.549   0.646   0.387   0.158   0.141   0.294   0.249   0.807   0.000   0.000
 2022 130    10  27.30  24.30   7.30 -99.000   6.696   0.000   6.696   6.696   0.000   6.696   0.000   0.000   41.52   37.69    0.00   37.69    0.00    0.00 -99.000 -99.000 -99.000   2.008   1.428   0.674   0.659   0.380   0.155   0.135   0.276   0.231   0.751   0.000   0.000
 2022 131    11  22.30  32.40  12.80 -99.000   6.294   0.000   6.294   6.294   0.000   6.294   0.000   0.000   47.82   43.98    0.00   43.98    0.00    0.00 -99.000 -99.000 -99.000   1.763   1.362   0.697   0.701   0.381   0.156   0.127   0.246   0.203   0.657   0.000   0.000
 2022 132    12  18.50  30.80  12.30 -99.000   5.116   0.000   5.116   5.116   0.000   5.116   0.000   0.000   52.93   49.10    0.00   49.10    0.00    0.00 -99.000 -99.000 -99.000   1.379   1.059   0.548   0.653   0.350   0.148   0.113   0.198   0.161   0.508   0.000   0.000
 2022 133    13  24.00  24.20   6.30 -99.000   5.845   0.000   5.845   5.845   0.000   5.845   0.000   0.000   58.78   54.94    0.00   54.94    0.00    0.00 -99.000 -99.000 -99.000   1.526   1.164   0.601   0.795   0.443   0.200   0.147   0.230   0.183   0.557   0.000   0.000
 2022 134    14  23.00  22.90   7.90 -99.000   5.580   0.000   5.580   5.580   0.000   5.580   0.000   0.000   64.36   60.52    0.00   60.52    0.00    0.00 -99.000 -99.000 -99.000   1.405   1.074   0.555   0.771   0.459   0.223   0.163   0.229   0.179   0.522   0.000   0.000
 2022 135    15  26.60  22.90   9.20 -99.000   6.531   0.000   6.531   6.531   0.000   6.531   0.000   0.000   70.89   67.05    0.00   67.05    0.00    0.00 -99.000 -99.000 -99.000   1.600   1.221   0.630   0.885   0.574   0.274   0.226   0.291   0.221   0.610   0.000   0.000
 2022 136    16  26.40  29.10   7.40 -99.000   6.892   0.000   6.892   6.892   0.000   6.892   0.000   0.000   77.78   73.94    0.00   73.94    0.00    0.00 -99.000 -99.000 -99.000   1.465   1.186   0.696   0.902   0.651   0.313   0.286   0.378   0.281   0.733   0.000   0.000
 2022 137    17  23.00  28.60  15.30 -99.000   6.189   0.000   6.189   6.189   0.000   6.189   0.000   0.000   83.97   80.13    0.00   80.13    0.00    0.00 -99.000 -99.000 -99.000   1.248   1.056   0.605   0.800   0.554   0.258   0.235   0.367   0.283   0.784   0.000   0.000
 2022 138    18  27.10  29.60  10.40 -99.000   6.975   0.018   6.957   6.576   0.018   6.558   0.000   0.000   90.94   86.71    0.02   86.69    0.00    0.00 -99.000 -99.000 -99.000   1.286   1.118   0.628   0.844   0.564   0.252   0.231   0.395   0.314   0.927   0.002   0.109
 2022 139    19  21.40  31.40   8.80 -99.000   5.492   0.026   5.467   5.492   0.026   5.467   0.000   0.000   96.44   92.20    0.04   92.16    0.00    0.00 -99.000 -99.000 -99.000   1.019   0.937   0.519   0.706   0.459   0.199   0.182   0.335   0.273   0.838   0.003   0.113
 2022 140    20   8.10  11.90   6.80 -99.000   1.562   0.011   1.551   1.562   0.011   1.551   0.000   0.000   98.00   93.76    0.05   93.71    0.00    0.00 -99.000 -99.000 -99.000   0.270   0.270   0.147   0.202   0.129   0.055   0.050   0.097   0.080   0.252   0.001   0.119
 2022 141    21  14.20  13.80  -0.60 -99.000   2.605   0.019   2.586   2.604   0.019   2.586   0.000   0.000  100.60   96.37    0.07   96.29    0.00    0.00 -99.000 -99.000 -99.000   0.443   0.456   0.245   0.336   0.211   0.088   0.080   0.161   0.135   0.430   0.002   0.119
 2022 142    22  19.60  17.40  -3.30 -99.000   3.691   0.015   3.675   3.691   0.015   3.675   0.000   0.000  104.29  100.06    0.09   99.97    0.00    0.00 -99.000 -99.000 -99.000   0.604   0.648   0.352   0.481   0.299   0.124   0.113   0.232   0.196   0.626   0.002   0.121
 2022 143    23   4.20  12.30   7.10 -99.000   0.811   0.001   0.810   0.811   0.001   0.810   0.000   0.000  105.10  100.87    0.09  100.78    0.00    0.00 -99.000 -99.000 -99.000   0.205   0.160   0.073   0.088   0.054   0.022   0.020   0.041   0.035   0.112   0.000   0.124
 2022 144    24   8.60  13.00   6.60 -99.000   1.799   0.002   1.798   1.799   0.002   1.798   0.000   0.000  106.90  102.67    0.09  102.58    0.00    0.00 -99.000 -99.000 -99.000   0.543   0.384   0.178   0.181   0.103   0.042   0.036   0.073   0.062   0.196   0.000   0.123
 2022 145    25  26.50  19.00   7.70 -99.000   6.112   0.008   6.104   6.112   0.008   6.104   0.000   0.000  113.02  108.78    0.10  108.68    0.00    0.00 -99.000 -99.000 -99.000   1.704   1.281   0.659   0.727   0.387   0.160   0.128   0.237   0.198   0.624   0.001   0.122
 2022 146    26  28.80  27.30   3.70 -99.000   7.121   0.018   7.103   7.121   0.018   7.103   0.000   0.000  120.14  115.90    0.12  115.78    0.00    0.00 -99.000 -99.000 -99.000   1.861   1.428   0.738   0.953   0.517   0.225   0.168   0.278   0.227   0.706   0.002   0.124
 2022 147    27  27.00  32.90   6.80 -99.000   7.321   0.031   7.290   7.321   0.031   7.290   0.000   0.000  127.46  123.22    0.15  123.07    0.00    0.00 -99.000 -99.000 -99.000   1.843   1.418   0.733   1.008   0.579   0.273   0.199   0.294   0.235   0.709   0.003   0.128
 2022 148    28  23.90  31.00  11.00 -99.000   6.545   0.048   6.496   6.544   0.048   6.496   0.000   0.000  134.00  129.77    0.20  129.57    0.00    0.00 -99.000 -99.000 -99.000   1.597   1.228   0.635   0.892   0.548   0.267   0.209   0.277   0.216   0.626   0.005   0.134
 2022 149    29  21.10  28.30  15.00 -99.000   5.771   0.103   5.668   5.771   0.103   5.668   0.000   0.000  139.77  135.54    0.30  135.24    0.00    0.00 -99.000 -99.000 -99.000   1.366   1.046   0.540   0.759   0.498   0.235   0.205   0.267   0.201   0.551   0.010   0.145
 2022 150    30  16.50  18.60  10.60 -99.000   3.850   0.114   3.736   3.850   0.114   3.736   0.000   0.000  143.62  139.39    0.41  138.97    0.00    0.00 -99.000 -99.000 -99.000   0.916   0.627   0.359   0.459   0.329   0.158   0.145   0.202   0.150   0.392   0.011   0.170
 2022 151    31  15.50  20.40   8.40 -99.000   3.630   0.128   3.501   3.630   0.128   3.501   0.000   0.000  147.25  143.02    0.54  142.48    0.00    0.00 -99.000 -99.000 -99.000   0.817   0.584   0.328   0.428   0.295   0.137   0.125   0.200   0.155   0.431   0.013   0.193
 2022 152    32  20.60  20.00   8.60 -99.000   4.683   0.194   4.488   4.682   0.194   4.488   0.000   0.000  151.94  147.70    0.73  146.96    0.00    0.00 -99.000 -99.000 -99.000   0.992   0.755   0.417   0.554   0.368   0.165   0.150   0.262   0.209   0.614   0.019   0.219
 2022 153    33  23.50  24.20   5.00 -99.000   5.376   0.257   5.118   5.375   0.257   5.118   0.000   0.000  157.31  153.07    0.99  152.08    0.00    0.00 -99.000 -99.000 -99.000   1.076   0.866   0.472   0.638   0.413   0.179   0.164   0.304   0.249   0.758   0.026   0.263
 2022 154    34  24.50  25.90   7.70 -99.000   5.795   0.320   5.472   5.793   0.320   5.472   0.000   0.000  163.11  158.86    1.31  157.55    0.00    0.00 -99.000 -99.000 -99.000   1.089   0.931   0.505   0.689   0.438   0.186   0.170   0.331   0.275   0.859   0.032   0.319
 2022 155    35  25.90  30.40  11.20 -99.000   6.594   0.432   6.160   5.895   0.432   5.463   0.000   0.000  169.70  164.76    1.74  163.02    0.00    0.00 -99.000 -99.000 -99.000   0.996   0.933   0.510   0.703   0.441   0.184   0.169   0.340   0.284   0.903   0.043   0.380
 2022 156    36  19.80  29.30  12.60 -99.000   4.985   0.403   4.580   4.982   0.403   4.580   0.000   0.000  174.69  169.74    2.14  167.60    0.00    0.00 -99.000 -99.000 -99.000   0.748   0.776   0.433   0.607   0.378   0.157   0.143   0.294   0.249   0.795   0.040   0.447
 2022 157    37  27.20  29.20  14.10 -99.000   6.868   0.658   6.206   5.676   0.658   5.018   0.000   0.000  181.55  175.42    2.80  172.61    0.00    0.00 -99.000 -99.000 -99.000   0.797   0.827   0.472   0.670   0.420   0.172   0.159   0.330   0.278   0.893   0.066   0.493
 2022 158    38   9.40  23.50  11.40 -99.000   2.164   0.244   1.919   2.162   0.244   1.919   0.000   0.000  183.72  177.58    3.05  174.53    0.00    0.00 -99.000 -99.000 -99.000   0.469   0.296   0.156   0.226   0.143   0.059   0.054   0.113   0.095   0.307   0.024   0.597
 2022 159    39  29.80  24.90  11.00 -99.000   7.300   0.894   6.401   6.779   0.894   5.885   0.000   0.000  191.02  184.36    3.94  180.42    0.00    0.00 -99.000 -99.000 -99.000   1.623   0.937   0.462   0.646   0.410   0.169   0.156   0.326   0.274   0.882   0.089   0.615
 2022 160    40  17.90  26.70  15.10 -99.000   4.521   0.611   3.906   4.517   0.611   3.906   0.000   0.000  195.54  188.88    4.55  184.32    0.00    0.00 -99.000 -99.000 -99.000   0.947   0.642   0.324   0.445   0.285   0.118   0.109   0.227   0.192   0.619   0.061   0.737
 2022 161    41  26.20  29.60  13.10 -99.000   6.682   0.935   5.741   1.843   0.935   0.908   0.000   0.000  202.22  190.72    5.49  185.23    0.00    0.00 -99.000 -99.000 -99.000   0.763   0.093   0.020   0.015   0.006   0.002   0.001   0.002   0.002   0.003   0.094   0.841
 2022 162    42  27.30  32.70  19.40 -99.000   7.501   1.089   6.407   1.910   1.089   0.821   0.000   0.000  209.72  192.63    6.58  186.05    0.00    0.00 -99.000 -99.000 -99.000   0.679   0.091   0.020   0.015   0.006   0.002   0.001   0.002   0.002   0.003   0.109   0.960
 2022 163    43  26.90  34.60  18.80 -99.000   7.457   1.170   6.282   1.908   1.170   0.739   0.000   0.000  217.18  194.54    7.75  186.79    0.00    0.00 -99.000 -99.000 -99.000   0.600   0.088   0.020   0.015   0.006   0.002   0.001   0.002   0.002   0.003   0.117   1.093
 2022 164    44  27.40  41.20  21.10 -99.000  10.494   1.790   8.698   2.453   1.790   0.663   0.000   0.000  227.67  196.99    9.54  187.45    0.00    0.00 -99.000 -99.000 -99.000   0.527   0.085   0.019   0.015   0.006   0.002   0.001   0.002   0.002   0.003   0.179   1.228
 2022 165    45  27.30  30.00  18.10 -99.000   7.067   1.316   5.744   1.898   1.316   0.582   0.000   0.000  234.74  198.89   10.85  188.04    0.00    0.00 -99.000 -99.000 -99.000   0.451   0.082   0.018   0.015   0.006   0.002   0.001   0.002   0.002   0.003   0.132   1.295
 2022 166    46  29.00  30.60  14.00 -99.000   7.293   1.434   5.852   1.956   1.434   0.522   0.000   0.000  242.03  200.84   12.29  188.56    0.00    0.00 -99.000 -99.000 -99.000   0.395   0.078   0.018   0.015   0.006   0.002   0.001   0.002   0.002   0.003   0.143   1.300
 2022 167    47  28.90  31.60  11.20 -99.000   7.170   1.475   5.686   1.953   1.475   0.477   0.000   0.000  249.20  202.80   13.76  189.04    0.00    0.00 -99.000 -99.000 -99.000   0.355   0.075   0.017   0.015   0.006   0.002   0.001   0.002   0.002   0.003   0.148   1.417
 2022 168    48  27.80  38.90  19.80 -99.000   9.302   1.984   7.310   2.423   1.984   0.439   0.000   0.000  258.51  205.22   15.75  189.48    0.00    0.00 -99.000 -99.000 -99.000   0.321   0.071   0.016   0.014   0.006   0.002   0.001   0.002   0.002   0.003   0.198   1.566
 2022 169    49  28.20  37.20  24.40 -99.000   8.899   2.057   6.834   2.461   2.057   0.404   0.000   0.000  267.40  207.68   17.80  189.88    0.00    0.00 -99.000 -99.000 -99.000   0.292   0.067   0.015   0.014   0.006   0.002   0.001   0.002   0.002   0.003   0.206   1.698
 2022 170    50  26.40  36.60  24.50 -99.000   8.047   2.026   6.013   2.393   2.022   0.372   0.000   0.000  275.45  210.07   19.82  190.25    0.00    0.00 -99.000 -99.000 -99.000   0.266   0.062   0.015   0.014   0.005   0.002   0.001   0.002   0.002   0.003   0.202   1.840
 2022 171    51  21.80  36.60  23.00 -99.000   6.554   1.775   4.772   2.117   1.775   0.343   0.000   0.000  282.01  212.19   21.60  190.59    0.00    0.00 -99.000 -99.000 -99.000   0.242   0.058   0.014   0.013   0.005   0.002   0.001   0.002   0.002   0.003   0.177   1.987
 2022 172    52  16.70  27.20  12.00 -99.000   3.888   1.106   2.775   1.422   1.106   0.317   0.000   0.000  285.89  213.61   22.70  190.91    0.00    0.00 -99.000 -99.000 -99.000   0.221   0.054   0.013   0.013   0.005   0.002   0.001   0.002   0.002   0.003   0.111   1.964
 2022 173    53  23.10  30.80   9.10 -99.000   5.477   1.570   3.898   1.864   1.570   0.294   0.000   0.000  291.37  215.48   24.27  191.20    0.00    0.00 -99.000 -99.000 -99.000   0.202   0.052   0.012   0.013   0.005   0.002   0.001   0.002   0.002   0.003   0.157   1.847
 2022 174    54  28.80  35.40  18.20 -99.000   7.812   2.268   5.534   2.541   2.268   0.273   0.000   0.000  299.18  218.02   26.54  191.48    0.00    0.00 -99.000 -99.000 -99.000   0.184   0.049   0.012   0.013   0.005   0.002   0.001   0.002   0.002   0.003   0.227   1.655
 2022 175    55  23.10  31.90  19.40 -99.000   5.967   1.800   4.159   2.066   1.800   0.266   0.000   0.000  305.15  220.09   28.34  191.74    0.00    0.00 -99.000 -99.000 -99.000   0.181   0.047   0.011   0.012   0.005   0.002   0.001   0.002   0.002   0.003   0.180   1.394
 2022 176    56  22.80  24.90  15.30 -99.000   5.271   1.642   3.619   1.903   1.642   0.261   0.000   0.000  310.42  221.99   29.98  192.00    0.00    0.00 -99.000 -99.000 -99.000   0.178   0.045   0.010   0.012   0.005   0.002   0.001   0.002   0.002   0.003   0.164   1.352
 2022 177    57  21.10  24.40   7.80 -99.000   4.551   1.429   3.113   1.672   1.429   0.243   0.000   0.000  314.97  223.66   31.41  192.25    0.00    0.00 -99.000 -99.000 -99.000   0.163   0.044   0.010   0.011   0.005   0.002   0.001   0.002   0.002   0.003   0.143   1.377
 2022 178    58  28.70  29.30  13.40 -99.000   6.873   2.144   4.717   2.371   2.144   0.227   0.000   0.000  321.84  226.03   33.56  192.47    0.00    0.00 -99.000 -99.000 -99.000   0.148   0.043   0.010   0.011   0.005   0.002   0.001   0.002   0.002   0.003   0.214   1.426
 2022 179    59  26.10  35.00  12.80 -99.000   6.626   2.086   4.530   2.297   2.086   0.212   0.000   0.000  328.47  228.33   35.64  192.69    0.00    0.00 -99.000 -99.000 -99.000   0.135   0.042   0.009   0.010   0.005   0.002   0.001   0.002   0.002   0.003   0.209   1.496
 2022 180    60  24.30  38.10  19.80 -99.000   7.623   2.446   5.166   2.644   2.446   0.198   0.000   0.000  336.09  230.97   38.09  192.88    0.00    0.00 -99.000 -99.000 -99.000   0.124   0.041   0.009   0.010   0.005   0.002   0.001   0.002   0.002   0.003   0.245   1.554
 2022 181    61  20.00  34.10  19.90 -99.000   5.273   1.744   3.520   1.929   1.744   0.185   0.000   0.000  341.37  232.90   39.83  193.07    0.00    0.00 -99.000 -99.000 -99.000   0.113   0.040   0.009   0.009   0.004   0.002   0.001   0.002   0.002   0.003   0.174   1.589
 2022 182    62  21.10  30.70  17.70 -99.000   5.272   1.785   3.478   1.959   1.785   0.174   0.000   0.000  346.64  234.86   41.62  193.24    0.00    0.00 -99.000 -99.000 -99.000   0.103   0.039   0.009   0.008   0.004   0.002   0.001   0.002   0.002   0.003   0.179   1.612
 2022 183    63  23.20  28.40  15.90 -99.000   5.568   1.906   3.653   5.558   1.906   3.653   0.000   0.000  352.21  240.42   43.52  196.89    0.00    0.00 -99.000 -99.000 -99.000   1.083   0.484   0.153   0.260   0.244   0.119   0.117   0.260   0.221   0.713   0.191   1.598
 2022 184    64  24.00  34.50  20.60 -99.000   6.835   2.347   4.477   6.824   2.347   4.477   0.000   0.000  359.04  247.24   45.87  201.37    0.00    0.00 -99.000 -99.000 -99.000   1.852   0.714   0.155   0.221   0.216   0.108   0.107   0.240   0.204   0.660   0.235   2.663
 2022 185    65  25.80  37.00  19.40 -99.000   8.107   2.840   5.255   8.095   2.840   5.255   0.000   0.000  367.15  255.34   48.71  206.63    0.00    0.00 -99.000 -99.000 -99.000   1.785   0.967   0.270   0.274   0.269   0.137   0.135   0.307   0.262   0.849   0.284   2.817
 2022 186    66  24.40  36.90  19.90 -99.000   7.480   2.676   4.792   7.468   2.676   4.792   0.000   0.000  374.63  262.81   51.39  211.42    0.00    0.00 -99.000 -99.000 -99.000   1.642   0.989   0.345   0.223   0.212   0.110   0.109   0.250   0.215   0.697   0.268   3.504
 2022 187    67  14.10  28.80  18.80 -99.000   3.698   1.348   2.342   3.691   1.348   2.342   0.000   0.000  378.32  266.50   52.74  213.76    0.00    0.00 -99.000 -99.000 -99.000   0.761   0.520   0.211   0.114   0.095   0.050   0.050   0.116   0.100   0.325   0.135   3.601
 2022 188    68  20.90  27.70  20.40 -99.000   5.413   1.989   3.414   5.403   1.989   3.414   0.000   0.000  383.74  271.90   54.72  217.18    0.00    0.00 -99.000 -99.000 -99.000   1.165   0.715   0.330   0.188   0.130   0.069   0.069   0.161   0.138   0.451   0.199   4.134
 2022 189    69  27.30  31.70  18.70 -99.000   7.386   2.772   4.601   7.373   2.772   4.601   0.000   0.000  391.12  279.27   57.50  221.78    0.00    0.00 -99.000 -99.000 -99.000   1.445   0.901   0.446   0.356   0.182   0.098   0.098   0.230   0.198   0.647   0.277   4.256
 2022 190    70  27.10  36.40  19.60 -99.000   8.069   3.090   4.966   8.056   3.090   4.966   0.000   0.000  399.19  287.33   60.59  226.74    0.00    0.00 -99.000 -99.000 -99.000   1.339   0.943   0.480   0.510   0.207   0.113   0.114   0.269   0.232   0.760   0.309   4.282
 2022 191    71  27.40  37.80  22.30 -99.000   8.818   3.418   5.386   8.540   3.418   5.121   0.000   0.000  408.01  295.87   64.00  231.86    0.00    0.00 -99.000 -99.000 -99.000   1.300   0.953   0.486   0.561   0.215   0.120   0.122   0.290   0.251   0.824   0.342   4.195
 2022 192    72  27.80  27.70  15.10 -99.000   6.742   2.626   4.102   3.506   2.626   0.880   0.000   0.000  414.75  299.37   66.63  232.74    0.00    0.00 -99.000 -99.000 -99.000   0.742   0.092   0.021   0.013   0.003   0.001   0.001   0.002   0.001   0.003   0.263   4.077
 2022 193    73  26.80  30.50  12.60 -99.000   6.571   2.531   4.027   3.331   2.531   0.800   0.000   0.000  421.32  302.71   69.16  233.54    0.00    0.00 -99.000 -99.000 -99.000   0.668   0.088   0.020   0.013   0.003   0.001   0.001   0.002   0.001   0.003   0.253   4.130
 2022 194    74  25.00  36.10  17.90 -99.000   7.089   2.697   4.380   3.424   2.697   0.727   0.000   0.000  428.41  306.13   71.86  234.27    0.00    0.00 -99.000 -99.000 -99.000   0.601   0.083   0.019   0.013   0.003   0.001   0.001   0.002   0.001   0.003   0.270   4.175
 2022 195    75  29.30  38.90  22.10 -99.000   9.836   3.721   6.100   4.379   3.721   0.658   0.000   0.000  438.25  310.51   75.58  234.93    0.00    0.00 -99.000 -99.000 -99.000   0.538   0.078   0.018   0.012   0.003   0.001   0.001   0.002   0.001   0.003   0.372   4.174
 2022 196    76  27.20  34.70  17.50 -99.000   7.177   2.708   4.456   3.277   2.708   0.569   0.000   0.000  445.42  313.79   78.29  235.50    0.00    0.00 -99.000 -99.000 -99.000   0.458   0.072   0.016   0.012   0.003   0.001   0.001   0.002   0.001   0.003   0.271   4.152
 2022 197    77  20.10  34.50  19.70 -99.000   5.360   2.008   3.343   2.508   2.008   0.500   0.000   0.000  450.78  316.29   80.29  236.00    0.00    0.00 -99.000 -99.000 -99.000   0.395   0.067   0.015   0.011   0.003   0.001   0.001   0.002   0.001   0.003   0.201   3.868
 2022 198    78  27.40  34.10  17.00 -99.000   7.129   2.643   4.474   3.100   2.643   0.456   0.000   0.000  457.91  319.39   82.94  236.46    0.00    0.00 -99.000 -99.000 -99.000   0.356   0.063   0.015   0.011   0.003   0.001   0.001   0.002   0.001   0.003   0.264   3.799
 2022 199    79  28.30  38.90  19.40 -99.000   9.249   3.399   5.836   3.815   3.399   0.416   0.000   0.000  467.16  323.21   86.34  236.87    0.00    0.00 -99.000 -99.000 -99.000   0.322   0.059   0.014   0.011   0.003   0.001   0.001   0.002   0.001   0.003   0.340   3.802
 2022 200    80  29.20  34.60  15.30 -99.000   7.528   2.749   4.766   3.128   2.749   0.378   0.000   0.000  474.69  326.34   89.09  237.25    0.00    0.00 -99.000 -99.000 -99.000   0.293   0.052   0.012   0.010   0.003   0.001   0.001   0.002   0.001   0.003   0.275   3.406
 2022 201    81  28.10  34.20  13.20 -99.000   7.098   2.569   4.517   2.909   2.563   0.346   0.000   0.000  481.79  329.25   91.65  237.60    0.00    0.00 -99.000 -99.000 -99.000   0.266   0.048   0.011   0.010   0.003   0.001   0.001   0.002   0.001   0.003   0.256   2.546
 2022 202    82  25.50  38.00  17.10 -99.000   7.827   2.806   5.009   6.928   2.806   4.122   0.000   0.000  489.62  336.17   94.45  241.72    0.00    0.00 -99.000 -99.000 -99.000   1.286   0.538   0.221   0.363   0.180   0.096   0.104   0.275   0.244   0.816   0.281   2.206
 2022 203    83  27.40  34.80  19.40 -99.000   7.662   2.734   4.916   7.295   2.734   4.561   0.000   0.000  497.28  343.47   97.19  246.28    0.00    0.00 -99.000 -99.000 -99.000   1.692   0.660   0.203   0.324   0.174   0.090   0.100   0.270   0.240   0.809   0.273   3.456
 2022 204    84  23.60  36.20  23.40 -99.000   7.133   2.469   4.653   6.597   2.469   4.128   0.000   0.000  504.41  350.07   99.66  250.41    0.00    0.00 -99.000 -99.000 -99.000   1.328   0.654   0.193   0.297   0.169   0.087   0.096   0.265   0.237   0.802   0.247   2.896
 2022 205    85  24.80  28.80  17.20 -99.000   6.236   2.092   4.133   2.880   2.092   0.788   0.000   0.000  510.65  352.95  101.75  251.20    0.00    0.00 -99.000 -99.000 -99.000   0.700   0.062   0.009   0.007   0.002   0.001   0.001   0.002   0.001   0.003   0.209   2.599
 2022 206    86   5.60  22.10  18.10 -99.000   1.307   0.425   0.880   1.305   0.425   0.880   0.000   0.000  511.95  354.25  102.17  252.08    0.00    0.00 -99.000 -99.000 -99.000   0.279   0.128   0.041   0.062   0.037   0.019   0.021   0.059   0.053   0.181   0.042   2.527
 2022 207    87  15.30  27.40  17.90 -99.000   3.866   1.219   2.640   3.859   1.219   2.640   0.000   0.000  515.82  358.11  103.39  254.72    0.00    0.00 -99.000 -99.000 -99.000   0.890   0.391   0.118   0.178   0.107   0.054   0.059   0.169   0.152   0.521   0.122   2.487
 2022 208    88  16.60  28.80  13.60 -99.000   4.096   1.252   2.837   4.089   1.252   2.837   0.000   0.000  519.92  362.20  104.65  257.55    0.00    0.00 -99.000 -99.000 -99.000   1.090   0.515   0.132   0.155   0.095   0.047   0.052   0.150   0.136   0.465   0.125   2.410
 2022 209    89  18.40  24.40  15.60 -99.000   4.553   1.349   3.196   4.545   1.349   3.196   0.000   0.000  524.47  366.74  106.00  260.75    0.00    0.00 -99.000 -99.000 -99.000   1.185   0.696   0.187   0.157   0.097   0.048   0.053   0.154   0.139   0.479   0.135   3.263
 2022 210    90  15.40  25.90  16.40 -99.000   3.838   1.104   2.728   3.832   1.104   2.728   0.000   0.000  528.31  370.58  107.10  263.48    0.00    0.00 -99.000 -99.000 -99.000   0.877   0.594   0.212   0.144   0.090   0.045   0.049   0.143   0.129   0.446   0.110   3.221
 2022 211    91  27.20  28.70  15.30 -99.000   6.869   1.917   4.942   6.428   1.917   4.511   0.000   0.000  535.18  377.00  109.02  267.99    0.00    0.00 -99.000 -99.000 -99.000   1.317   0.976   0.409   0.247   0.155   0.077   0.083   0.247   0.224   0.776   0.192   3.187
 2022 212    92  21.80  33.20  17.70 -99.000   5.838   1.582   4.248   2.414   1.582   0.832   0.000   0.000  541.01  379.42  110.60  268.82    0.00    0.00 -99.000 -99.000 -99.000   0.704   0.094   0.018   0.006   0.002   0.001   0.001   0.002   0.001   0.003   0.158   3.113
 2022 213    93  25.60  37.30  15.00 -99.000   7.733   2.035   5.689   2.780   2.035   0.746   0.000   0.000  548.75  382.20  112.63  269.57    0.00    0.00 -99.000 -99.000 -99.000   0.622   0.091   0.017   0.006   0.002   0.001   0.001   0.002   0.001   0.003   0.203   3.093
 2022 214    94  24.00  38.90  19.30 -99.000   8.060   2.060   5.991   2.785   2.060   0.725   0.000   0.000  556.81  384.98  114.69  270.29    0.00    0.00 -99.000 -99.000 -99.000   0.607   0.086   0.016   0.006   0.002   0.001   0.001   0.002   0.001   0.003   0.206   3.072
 2022 215    95  25.50  33.20  18.40 -99.000   6.845   1.698   5.138   2.403   1.698   0.705   0.000   0.000  563.65  387.39  116.39  271.00    0.00    0.00 -99.000 -99.000 -99.000   0.593   0.081   0.015   0.006   0.002   0.001   0.001   0.002   0.001   0.003   0.170   3.058
 2022 216    96  25.50  34.60  16.20 -99.000   6.818   1.642   5.169   2.268   1.642   0.626   0.000   0.000  570.47  389.65  118.03  271.62    0.00    0.00 -99.000 -99.000 -99.000   0.519   0.077   0.014   0.006   0.002   0.001   0.001   0.002   0.001   0.003   0.164   3.082
 2022 217    97  25.10  37.50  22.10 -99.000   7.995   1.870   6.117   2.425   1.870   0.555   0.000   0.000  578.46  392.08  119.90  272.18    0.00    0.00 -99.000 -99.000 -99.000   0.453   0.073   0.014   0.006   0.002   0.001   0.001   0.002   0.001   0.003   0.187   3.032
 2022 218    98  21.70  30.30  21.50 -99.000   5.722   1.299   4.417   1.788   1.299   0.489   0.000   0.000  584.19  393.87  121.20  272.67    0.00    0.00 -99.000 -99.000 -99.000   0.392   0.069   0.013   0.006   0.002   0.001   0.001   0.002   0.001   0.003   0.130   2.771
 2022 219    99   7.20  22.30  14.20 -99.000   1.634   0.360   1.272   0.841   0.360   0.481   0.000   0.000  585.82  394.71  121.56  273.15    0.00    0.00 -99.000 -99.000 -99.000   0.389   0.065   0.012   0.006   0.002   0.001   0.001   0.002   0.001   0.003   0.036   2.717
 2022 220   100  26.10  30.70   8.50 -99.000   6.281   1.345   4.928   1.825   1.345   0.480   0.000   0.000  592.10  396.53  122.91  273.63    0.00    0.00 -99.000 -99.000 -99.000   0.389   0.064   0.012   0.006   0.002   0.001   0.001   0.002   0.001   0.003   0.135   2.766
 2022 221   101  25.50  34.70  16.50 -99.000   6.802   1.418   5.378   1.856   1.418   0.438   0.000   0.000  598.90  398.39  124.32  274.07    0.00    0.00 -99.000 -99.000 -99.000   0.351   0.060   0.011   0.006   0.002   0.001   0.001   0.002   0.001   0.003   0.142   2.287
 2022 222   102  25.70  36.20  15.80 -99.000   7.300   1.480   5.813   1.880   1.480   0.400   0.000   0.000  606.20  400.27  125.80  274.47    0.00    0.00 -99.000 -99.000 -99.000   0.318   0.056   0.011   0.006   0.002   0.001   0.001   0.002   0.001   0.003   0.148   2.086
 2022 223   103  24.80  36.00  15.30 -99.000   6.937   1.368   5.562   1.734   1.368   0.365   0.000   0.000  613.14  402.00  127.17  274.83    0.00    0.00 -99.000 -99.000 -99.000   0.289   0.051   0.010   0.006   0.002   0.001   0.001   0.002   0.001   0.003   0.137   1.419