*MANAGEMENT OPERATIONS DAILY OUTPUT FILE

*DSSAT Cropping System Model Ver. 4.8.2.000 -release  FEB 07, 2025 20:08:35

*RUN   1        : silt_loam_13in_irr        MZCER048 UNLI2201    1
 MODEL          : MZCER048 - Maize
 EXPERIMENT     : UNLI2201 MZ IRRIGATED MAIZE PRODUCTION
 DATA PATH      :
 TREATMENT  1   : silt_loam_13in_irr        MZCER048
  

@YEAR DOY   DAS   DAP  IR#C  IRRC  NAPC  NICM  R#AC RESNC RESPC
 2022 121     1     0     0     0     0     0     0     0     0
 2022 122     2     0     0     0     0     0     0     0     0
 2022 123     3     0     0     0     0     0     0     0     0
 2022 124     4     0     0     0     0     0     0     0     0
 2022 125     5     0     0     0     0     0     0     0     0
 2022 126     6     0     0     0     0     0     0     0     0
 2022 127     7     0     0     0     0     0     0     0     0
 2022 128     8     0     0     0     0     0     0     0     0
 2022 129     9     0     2    25     0     0     0     0     0
 2022 130    10     1     3    51     0     0     0     0     0
 2022 131    11     2     4    76     0     0     0     0     0
 2022 132    12     3     5   102     0     0     0     0     0
 2022 133    13     4     6   127     0     0     0     0     0
 2022 134    14     5     7   152     0     0     0     0     0
 2022 135    15     6     8   178     0     0     0     0     0
 2022 136    16     7     8   178     0     0     0     0     0
 2022 137    17     8     8   178     0     0     0     0     0
 2022 138    18     9     8   178     0     0     0     0     0
 2022 139    19    10     8   178     0     0     0     0     0
 2022 140    20    11     8   178     0     0     0     0     0
 2022 141    21    12     8   178     0     0     0     0     0
 2022 142    22    13     8   178     0     0     0     0     0
 2022 143    23    14     9   203     0     0     0     0     0
 2022 144    24    15    10   229     0     0     0     0     0
 2022 145    25    16    11   254     0     0     0     0     0
 2022 146    26    17    12   279     0     0     0     0     0
 2022 147    27    18    13   305     0     0     0     0     0
 2022 148    28    19    14   330     0     0     0     0     0
 2022 149    29    20    15   356     0     0     0     0     0
 2022 150    30    21    15   356     0     0     0     0     0
 2022 151    31    22    15   356     0     0     0     0     0
 2022 152    32    23    15   356     0     0     0     0     0
 2022 153    33    24    15   356     0     0     0     0     0
 2022 154    34    25    15   356     0     0     0     0     0
 2022 155    35    26    15   356     0     0     0     0     0
 2022 156    36    27    15   356     0     0     0     0     0
 2022 157    37    28    15   356     0     0     0     0     0
 2022 158    38    29    15   356     0     0     0     0     0
 2022 159    39    30    15   356     0     0     0     0     0
 2022 160    40    31    15   356     0     0     0     0     0
 2022 161    41    32    15   356     0     0     0     0     0
 2022 162    42    33    15   356     0     0     0     0     0
 2022 163    43    34    15   356     0     0     0     0     0
 2022 164    44    35    15   356     0     0     0     0     0
 2022 165    45    36    15   356     0     0     0     0     0
 2022 166    46    37    15   356     0     0     0     0     0
 2022 167    47    38    15   356     0     0     0     0     0
 2022 168    48    39    15   356     0     0     0     0     0
 2022 169    49    40    15   356     0     0     0     0     0
 2022 170    50    41    15   356     0     0     0     0     0
 2022 171    51    42    15   356     0     0     0     0     0
 2022 172    52    43    15   356     0     0     0     0     0
 2022 173    53    44    15   356     0     0     0     0     0
 2022 174    54    45    15   356     0     0     0     0     0
 2022 175    55    46    15   356     0     0     0     0     0
 2022 176    56    47    15   356     0     0     0     0     0
 2022 177    57    48    15   356     0     0     0     0     0
 2022 178    58    49    15   356     0     0     0     0     0
 2022 179    59    50    15   356     0     0     0     0     0
 2022 180    60    51    15   356     0     0     0     0     0
 2022 181    61    52    15   356     0     0     0     0     0
 2022 182    62    53    15   356     0     0     0     0     0
 2022 183    63    54    15   356     0     0     0     0     0
 2022 184    64    55    15   356     0     0     0     0     0
 2022 185    65    56    15   356     0     0     0     0     0
 2022 186    66    57    15   356     0     0     0     0     0
 2022 187    67    58    15   356     0     0     0     0     0
 2022 188    68    59    15   356     0     0     0     0     0
 2022 189    69    60    15   356     0     0     0     0     0
 2022 190    70    61    15   356     0     0     0     0     0
 2022 191    71    62    15   356     0     0     0     0     0
 2022 192    72    63    15   356     0     0     0     0     0
 2022 193    73    64    15   356     0     0     0     0     0
 2022 194    74    65    15   356     0     0     0     0     0
 2022 195    75    66    15   356     0     0     0     0     0
 2022 196    76    67    15   356     0     0     0     0     0
 2022 197    77    68    15   356     0     0     0     0     0
 2022 198    78    69    15   356     0     0     0     0     0
 2022 199    79    70    15   356     0     0     0     0     0
 2022 200    80    71    15   356     0     0     0     0     0
 2022 201    81    72    15   356     0     0     0     0     0
 2022 202    82    73    15   356     0     0     0     0     0
 2022 203    83    74    15   356     0     0     0     0     0
 2022 204    84    75    15   356     0     0     0     0     0
 2022 205    85    76    15   356     0     0     0     0     0
 2022 206    86    77    15   356     0     0     0     0     0
 2022 207    87    78    15   356     0     0     0     0     0
 2022 208    88    79    15   356     0     0     0     0     0
 2022 209    89    80    15   356     0     0     0     0     0
 2022 210    90    81    15   356     0     0     0     0     0
 2022 211    91    82    15   356     0     0     0     0     0
 2022 212    92    83    15   356     0     0     0     0     0
 2022 213    93    84    15   356     0     0     0     0     0
 2022 214    94    85    15   356     0     0     0     0     0
 2022 215    95    86    15   356     0     0     0     0     0
 2022 216    96    87    15   356     0     0     0     0     0
 2022 217    97    88    15   356     0     0     0     0     0
 2022 218    98    89    15   356     0     0     0     0     0
 2022 219    99    90    15   356     0     0     0     0     0
 2022 220   100    91    15   356     0     0     0     0     0
 2022 221   101    92    15   356     0     0     0     0     0
 2022 222   102    93    15   356     0     0     0     0     0
 2022 223   103    94    15   356     0     0     0     0     0
 2022 224   104    95    15   356     0     0     0     0     0
 2022 225   105    96    15   356     0     0     0     0     0
 2022 226   106    97    15   356     0     0     0     0     0
 2022 227   107    98    15   356     0     0     0     0     0
 2022 228   108    99    15   356     0     0     0     0     0
 2022 229   109   100    15   356     0     0     0     0     0
 2022 230   110   101    15   356     0     0     0     0     0
 2022 231   111   102    15   356     0     0     0     0     0
 2022 232   112   103    15   356     0     0     0     0     0
 2022 233   113   104    15   356     0     0     0     0     0
 2022 234   114   105    15   356     0     0     0     0     0
 2022 235   115   106    15   356     0     0     0     0     0
 2022 236   116   107    15   356     0     0     0     0     0
 2022 237   117   108    15   356     0     0     0     0     0
 2022 238   118   109    15   356     0     0     0     0     0
 2022 239   119   110    15   356     0     0     0     0     0
 2022 240   120   111    15   356     0     0     0     0     0
 2022 241   121   112    15   356     0     0     0     0     0
 2022 242   122   113    15   356     0     0     0     0     0
 2022 243   123   114    15   356     0     0     0     0     0
 2022 244   124   115    15   356     0     0     0     0     0
 2022 245   125   116    15   356     0     0     0     0     0
 2022 246   126   117    15   356     0     0     0     0     0
 2022 247   127   118    15   356     0     0     0     0     0
 2022 248   128   119    15   356     0     0     0     0     0
 2022 249   129   120    15   356     0     0     0     0     0
 2022 250   130   121    15   356     0     0     0     0     0
 2022 251   131   122    15   356     0     0     0     0     0
 2022 252   132   123    15   356     0     0     0     0     0
 2022 253   133   124    15   356     0     0     0     0     0
 2022 254   134   125    15   356     0     0     0     0     0
 2022 255   135   126    15   356     0     0     0     0     0
 2022 256   136   127    15   356     0     0     0     0     0
 2022 257   137   128    15   356     0     0     0     0     0
 2022 258   138   129    15   356     0     0     0     0     0
 2022 259   139   130    15   356     0     0     0     0     0
 2022 260   140   131    15   356     0     0     0     0     0
 2022 261   141   132    15   356     0     0     0     0     0
 2022 262   142   133    15   356     0     0     0     0     0
 2022 263   143   134    15   356     0     0     0     0     0
