*N2O emissions output file

*DSSAT Cropping System Model Ver. 4.8.2.000 -release  FEB 07, 2025 20:08:35

*RUN   1        : silt_loam_13in_irr        MZCER048 UNLI2201    1
 MODEL          : MZCER048 - Maize
 EXPERIMENT     : UNLI2201 MZ IRRIGATED MAIZE PRODUCTION
 DATA PATH      :
 TREATMENT  1   : silt_loam_13in_irr        MZCER048
  
!              |------------------------------ Cumulative -----------------------------|------------------------------ Daily ----------------------------------|
!               N2Oemit  N2emit  NOemit   Denit  Nitrif   N2O-denit+nit      N2      NO N2Oemit  N2emit  NOemit   Denit  Nitrif   N2O-denit+nit      N2      NO   Denitrification (g[N]/ha) by soil depth (cm):                                   Nitrification (g[N]/ha) by soil depth (cm):                                     N2O flux (g[N]/ha) by soil depth (cm):                                          N2 flux (g[N]/ha) by soil depth (cm):                                           NO flux (g[N]/ha) by soil depth (cm):
!                 kg/ha   kg/ha   kg/ha   kg/ha   kg/ha   kg/ha   kg/ha   kg/ha   kg/ha    g/ha    g/ha    g/ha    g/ha    g/ha    g/ha    g/ha    g/ha    g/ha     0-5    5-15   15-23   23-38   38-53   53-61   61-69   69-84   84-99  99-160     0-5    5-15   15-23   23-38   38-53   53-61   61-69   69-84   84-99  99-160     0-5    5-15   15-23   23-38   38-53   53-61   61-69   69-84   84-99  99-160     0-5    5-15   15-23   23-38   38-53   53-61   61-69   69-84   84-99  99-160     0-5    5-15   15-23   23-38   38-53   53-61   61-69   69-84   84-99  99-160
@YEAR DOY   DAS   N2OEC    N2EC    NOEC    NDNC    NITC   N2ODC   N2ONC   N2FLC   NOFLC  N2OGED   N2GED   NOGED    NDND   NITRD   N2ODD   N2OND   N2FLD   NOFLD   NDN1D   NDN2D   NDN3D   NDN4D   NDN5D   NDN6D   NDN7D   NDN8D   NDN9D   NDN10   NIT1D   NIT2D   NIT3D   NIT4D   NIT5D   NIT6D   NIT7D   NIT8D   NIT9D   NIT10   N2O1D   N2O2D   N2O3D   N2O4D   N2O5D   N2O6D   N2O7D   N2O8D   N2O9D   N2O10   N2F1D   N2F2D   N2F3D   N2F4D   N2F5D   N2F6D   N2F7D   N2F8D   N2F9D   N2F10   NOF1D   NOF2D   NOF3D   NOF4D   NOF5D   NOF6D   NOF7D   NOF8D   NOF9D   NOF10
 2022 121     1    0.00    0.00    0.00    0.00     0.0   0.000   0.000   0.000   0.000     0.0     0.0     0.0     0.0       0    0.00    0.00    0.00    0.00     0.0     0.0     0.0     0.0     0.0     0.0     0.0     0.0     0.0     0.0      0.      0.      0.      0.      0.      0.      0.      0.      0.      0.     0.0     0.0     0.0     0.0     0.0     0.0     0.0     0.0     0.0     0.0     0.0     0.0     0.0     0.0     0.0     0.0     0.0     0.0     0.0     0.0     0.0     0.0     0.0     0.0     0.0     0.0     0.0     0.0     0.0     0.0
 2022 122     2    0.00    0.00    0.00    0.00     0.0   0.000   0.000   0.000   0.000     0.0     0.0     0.0     0.0      14    0.00    0.01    0.00    0.30     0.0     0.0     0.0     0.0     0.0     0.0     0.0     0.0     0.0     0.0      2.      3.      2.      2.      1.      1.      1.      1.      1.      0.     0.0     0.0     0.0     0.0     0.0     0.0     0.0     0.0     0.0     0.0     0.0     0.0     0.0     0.0     0.0     0.0     0.0     0.0     0.0     0.0     0.0     0.0     0.0     0.0     0.0     0.0     0.0     0.0     0.0     0.0
 2022 123     3    0.00    0.00    0.00    0.00     0.0   0.000   0.000   0.000   0.001     0.0     0.0     0.0     0.0      22    0.00    0.02    0.00    0.26     0.0     0.0     0.0     0.0     0.0     0.0     0.0     0.0     0.0     0.0      2.      4.      3.      3.      3.      1.      1.      2.      1.      1.     0.0     0.0     0.0     0.0     0.0     0.0     0.0     0.0     0.0     0.0     0.0     0.0     0.0     0.0     0.0     0.0     0.0     0.0     0.0     0.0     0.0     0.0     0.0     0.0     0.0     0.0     0.0     0.0     0.0     0.0
 2022 124     4    0.00    0.00    0.00    0.00     0.1   0.000   0.000   0.000   0.001     0.0     0.0     0.0     0.0      28    0.00    0.03    0.00    0.26     0.0     0.0     0.0     0.0     0.0     0.0     0.0     0.0     0.0     0.0      3.      5.      3.      4.      3.      1.      1.      2.      2.      1.     0.0     0.0     0.0     0.0     0.0     0.0     0.0     0.0     0.0     0.0     0.0     0.0     0.0     0.0     0.0     0.0     0.0     0.0     0.0     0.0     0.0     0.0     0.0     0.0     0.0     0.0     0.0     0.0     0.0     0.0
 2022 125     5    0.00    0.00    0.00    0.00     0.1   0.000   0.000   0.000   0.001     0.0     0.0     0.0     0.0      28    0.00    0.03    0.00    0.19     0.0     0.0     0.0     0.0     0.0     0.0     0.0     0.0     0.0     0.0      3.      6.      4.      4.      3.      1.      1.      2.      1.      1.     0.0     0.0     0.0     0.0     0.0     0.0     0.0     0.0     0.0     0.0     0.0     0.0     0.0     0.0     0.0     0.0     0.0     0.0     0.0     0.0     0.0     0.0     0.0     0.0     0.0     0.0     0.0     0.0     0.0     0.0
 2022 126     6    0.00    0.00    0.00    0.00     0.1   0.000   0.000   0.000   0.001     0.0     0.0     0.0     0.0      28    0.00    0.03    0.00    0.14     0.0     0.0     0.0     0.0     0.0     0.0     0.0     0.0     0.0     0.0      4.      6.      4.      4.      3.      1.      1.      2.      1.      1.     0.0     0.0     0.0     0.0     0.0     0.0     0.0     0.0     0.0     0.0     0.0     0.0     0.0     0.0     0.0     0.0     0.0     0.0     0.0     0.0     0.0     0.0     0.0     0.0     0.0     0.0     0.0     0.0     0.0     0.0
 2022 127     7    0.00    0.00    0.00    0.00     0.1   0.000   0.000   0.000   0.001     0.0     0.0     0.0     0.0      30    0.00    0.03    0.00    0.17     0.0     0.0     0.0     0.0     0.0     0.0     0.0     0.0     0.0     0.0      4.      6.      4.      5.      3.      1.      1.      2.      1.      1.     0.0     0.0     0.0     0.0     0.0     0.0     0.0     0.0     0.0     0.0     0.0     0.0     0.0     0.0     0.0     0.0     0.0     0.0     0.0     0.0     0.0     0.0     0.0     0.0     0.0     0.0     0.0     0.0     0.0     0.0
 2022 128     8    0.00    0.00    0.00    0.00     0.2   0.000   0.000   0.000   0.001     0.0     0.0     0.0     0.0      38    0.00    0.04    0.00    0.14     0.0     0.0     0.0     0.0     0.0     0.0     0.0     0.0     0.0     0.0      5.      9.      5.      6.      4.      2.      1.      2.      1.      1.     0.0     0.0     0.0     0.0     0.0     0.0     0.0     0.0     0.0     0.0     0.0     0.0     0.0     0.0     0.0     0.0     0.0     0.0     0.0     0.0     0.0     0.0     0.0     0.0     0.0     0.0     0.0     0.0     0.0     0.0
 2022 129     9    0.00    0.00    0.00    0.00     0.2   0.000   0.000   0.000   0.002     0.0     0.0     0.0     0.0      62    0.00    0.06    0.03    0.28     0.0     0.0     0.0     0.0     0.0     0.0     0.0     0.0     0.0     0.0      9.     13.      8.     10.      6.      3.      2.      4.      3.      1.     0.0     0.0     0.0     0.0     0.0     0.0     0.0     0.0     0.0     0.0     0.0     0.0     0.0     0.0     0.0     0.0     0.0     0.0     0.0     0.0     0.0     0.0     0.0     0.0     0.0     0.0     0.0     0.0     0.0     0.0
 2022 130    10    0.00    0.00    0.00    0.00     0.3   0.000   0.000   0.000   0.002     0.0     0.0     0.0     0.3      95    0.00    0.10    0.27    0.34     0.1     0.1     0.0     0.0     0.0     0.0     0.0     0.0     0.0     0.0     10.     19.     12.     15.     10.      5.      4.      7.      5.      3.     0.0     0.0     0.0     0.0     0.0     0.0     0.0     0.0     0.0     0.0     0.1     0.1     0.0     0.0     0.0     0.0     0.0     0.0     0.0     0.0     0.0     0.0     0.0     0.0     0.1     0.0     0.0     0.1     0.0     0.0
 2022 131    11    0.00    0.00    0.00    0.00     0.5   0.000   0.000   0.001   0.003     0.0     0.0     0.0     0.5     127    0.00    0.13    0.54    0.44     0.1     0.2     0.2     0.0     0.0     0.0     0.0     0.0     0.0     0.0     13.     18.     12.     20.     15.      7.      6.     12.      8.      5.     0.0     0.0     0.0     0.0     0.0     0.0     0.0     0.0     0.0     0.0     0.1     0.2     0.2     0.0     0.0     0.0     0.0     0.0     0.0     0.0     0.0     0.0     0.0     0.0     0.1     0.0     0.0     0.1     0.1     0.0
 2022 132    12    0.00    0.00    0.00    0.00     0.6   0.000   0.001   0.002   0.003     0.0     0.0     0.0     0.9     177    0.00    0.18    0.87    0.51     0.2     0.3     0.2     0.2     0.0     0.0     0.0     0.0     0.0     0.0     17.     25.     16.     28.     20.     10.      9.     17.     12.      7.     0.0     0.0     0.0     0.0     0.0     0.0     0.0     0.0     0.0     0.0     0.2     0.3     0.2     0.2     0.0     0.0     0.0     0.0     0.0     0.0     0.0     0.0     0.0     0.0     0.0     0.0     0.1     0.1     0.1     0.1
 2022 133    13    0.00    0.00    0.00    0.00     0.9   0.000   0.001   0.003   0.004     0.0     0.0     0.0     1.4     218    0.00    0.22    1.39    0.56     0.2     0.4     0.3     0.4     0.2     0.0     0.0     0.0     0.0     0.0     20.     31.     20.     29.     25.     13.     12.     22.     17.     10.     0.0     0.0     0.0     0.0     0.0     0.0     0.0     0.0     0.0     0.0     0.2     0.4     0.3     0.4     0.2     0.0     0.0     0.0     0.0     0.0     0.0     0.0     0.0     0.0     0.0     0.0     0.0     0.1     0.1     0.1
 2022 134    14    0.00    0.00    0.00    0.01     1.1   0.000   0.001   0.005   0.004     0.0     0.0     0.0     2.1     240    0.00    0.24    2.06    0.55     0.2     0.4     0.3     0.5     0.3     0.2     0.1     0.0     0.0     0.0     22.     35.     22.     27.     28.     14.     13.     25.     19.     12.     0.0     0.0     0.0     0.0     0.0     0.0     0.0     0.0     0.0     0.0     0.2     0.4     0.3     0.5     0.3     0.2     0.1     0.0     0.0     0.0     0.0     0.0     0.0     0.0     0.0     0.0     0.0     0.1     0.1     0.1
 2022 135    15    0.00    0.00    0.00    0.01     1.4   0.000   0.001   0.008   0.005     0.0     0.1     0.0     2.7     253    0.01    0.25    2.71    0.51     0.3     0.5     0.4     0.6     0.4     0.3     0.2     0.0     0.0     0.0     23.     37.     24.     28.     26.     11.     14.     27.     21.     13.     0.0     0.0     0.0     0.0     0.0     0.0     0.0     0.0     0.0     0.0     0.3     0.5     0.4     0.6     0.4     0.3     0.2     0.0     0.0     0.0     0.0     0.0     0.0     0.0     0.0     0.0     0.0     0.1     0.1     0.1
 2022 136    16    0.00    0.00    0.00    0.01     1.6   0.000   0.002   0.011   0.005     0.0     0.1     0.0     3.5     268    0.01    0.27    3.50    0.41     0.3     0.5     0.4     0.7     0.6     0.3     0.3     0.2     0.0     0.0     26.     41.     27.     32.     24.     13.     11.     29.     23.     14.     0.0     0.0     0.0     0.0     0.0     0.0     0.0     0.0     0.0     0.0     0.3     0.5     0.4     0.7     0.6     0.3     0.3     0.2     0.0     0.0     0.0     0.0     0.0     0.0     0.0     0.0     0.0     0.0     0.1     0.1
 2022 137    17    0.00    0.00    0.00    0.01     1.9   0.000   0.002   0.015   0.005     0.0     0.2     0.0     3.4     314    0.01    0.31    3.41    0.38     0.2     0.4     0.4     0.6     0.6     0.4     0.4     0.4     0.2     0.0     34.     57.     30.     43.     28.     13.     12.     29.     23.     14.     0.0     0.1     0.0     0.0     0.0     0.0     0.0     0.0     0.0     0.0     0.2     0.4     0.4     0.6     0.6     0.4     0.4     0.4     0.2     0.0     0.1     0.0     0.0     0.0     0.0     0.0     0.0     0.0     0.0     0.1
 2022 138    18    0.00    0.00    0.00    0.02     2.3   0.000   0.002   0.017   0.006     0.1     0.4     0.1     2.0     354    0.01    0.35    2.02    0.79     0.1     0.3     0.3     0.3     0.3     0.2     0.2     0.2     0.1     0.1     33.     57.     42.     50.     35.     18.     17.     30.     24.     15.     0.0     0.1     0.0     0.1     0.0     0.0     0.0     0.0     0.0     0.0     0.1     0.2     0.3     0.3     0.3     0.2     0.2     0.2     0.1     0.1     0.2     0.1     0.0     0.0     0.0     0.0     0.0     0.1     0.1     0.1
 2022 139    19    0.00    0.00    0.00    0.02     2.7   0.000   0.003   0.018   0.008     0.1     0.5     0.2     1.1     380    0.00    0.38    1.14    1.30     0.0     0.1     0.2     0.2     0.2     0.1     0.1     0.1     0.1     0.0     35.     61.     44.     53.     38.     20.     18.     33.     27.     17.     0.0     0.1     0.0     0.1     0.0     0.0     0.0     0.0     0.0     0.0     0.0     0.1     0.2     0.2     0.2     0.1     0.1     0.1     0.1     0.0     0.3     0.2     0.0     0.1     0.1     0.0     0.0     0.1     0.2     0.1
 2022 140    20    0.00    0.00    0.00    0.02     3.1   0.000   0.003   0.019   0.009     0.1     0.6     0.2     0.6     406    0.00    0.41    0.61    1.93     0.0     0.0     0.1     0.1     0.1     0.1     0.1     0.1     0.0     0.0     36.     64.     46.     57.     41.     21.     19.     36.     29.     18.     0.0     0.1     0.0     0.1     0.0     0.0     0.0     0.0     0.0     0.0     0.0     0.0     0.1     0.1     0.1     0.1     0.1     0.1     0.0     0.0     0.3     0.3     0.1     0.1     0.2     0.1     0.1     0.2     0.2     0.1
 2022 141    21    0.00    0.00    0.00    0.02     3.5   0.000   0.003   0.019   0.011     0.1     0.6     0.3     0.4     373    0.00    0.37    0.35    1.99     0.0     0.0     0.0     0.1     0.1     0.0     0.0     0.0     0.0     0.0     31.     57.     41.     52.     38.     19.     18.     34.     28.     18.     0.0     0.1     0.0     0.1     0.0     0.0     0.0     0.0     0.0     0.0     0.0     0.0     0.0     0.1     0.1     0.0     0.0     0.0     0.0     0.0     0.2     0.3     0.1     0.2     0.2     0.1     0.1     0.2     0.2     0.1
 2022 142    22    0.00    0.00    0.00    0.02     3.8   0.000   0.004   0.019   0.013     0.1     0.6     0.3     0.2     318    0.00    0.32    0.16    1.82     0.0     0.0     0.0     0.0     0.0     0.0     0.0     0.0     0.0     0.0     25.     48.     34.     44.     32.     16.     16.     30.     25.     16.     0.0     0.0     0.0     0.0     0.0     0.0     0.0     0.0     0.0     0.0     0.0     0.0     0.0     0.0     0.0     0.0     0.0     0.0     0.0     0.0     0.2     0.2     0.1     0.2     0.2     0.1     0.1     0.2     0.2     0.1
 2022 143    23    0.00    0.00    0.00    0.02     4.0   0.000   0.004   0.019   0.015     0.1     0.6     0.4     0.0     257    0.00    0.26    0.05    1.52     0.0     0.0     0.0     0.0     0.0     0.0     0.0     0.0     0.0     0.0     18.     38.     27.     35.     26.     13.     13.     25.     21.     13.     0.0     0.0     0.0     0.0     0.0     0.0     0.0     0.0     0.0     0.0     0.0     0.0     0.0     0.0     0.0     0.0     0.0     0.0     0.0     0.0     0.1     0.2     0.1     0.2     0.2     0.1     0.1     0.2     0.1     0.1
 2022 144    24    0.00    0.00    0.00    0.02     4.2   0.000   0.004   0.019   0.016     0.0     0.1     0.0     0.1     209    0.00    0.21    0.08    0.91     0.0     0.0     0.0     0.0     0.0     0.0     0.0     0.0     0.0     0.0     12.     26.     22.     29.     22.     11.     11.     21.     18.     11.     0.0     0.0     0.0     0.0     0.0     0.0     0.0     0.0     0.0     0.0     0.0     0.0     0.0     0.0     0.0     0.0     0.0     0.0     0.0     0.0     0.0     0.0     0.0     0.1     0.1     0.1     0.1     0.1     0.1     0.1
 2022 145    25    0.00    0.00    0.00    0.02     4.4   0.000   0.004   0.019   0.016     0.0     0.1     0.0     0.3     163    0.00    0.16    0.30    0.63     0.0     0.0     0.0     0.0     0.2     0.1     0.0     0.0     0.0     0.0     11.     17.     12.     24.     18.      9.      9.     18.     15.     10.     0.0     0.0     0.0     0.0     0.0     0.0     0.0     0.0     0.0     0.0     0.0     0.0     0.0     0.0     0.2     0.1     0.0     0.0     0.0     0.0     0.0     0.0     0.0     0.0     0.1     0.1     0.1     0.1     0.1     0.1
 2022 146    26    0.00    0.00    0.00    0.02     4.6   0.000   0.005   0.020   0.017     0.0     0.1     0.1     0.9     164    0.01    0.16    0.92    0.52     0.0     0.0     0.0     0.0     0.5     0.2     0.1     0.0     0.0     0.0     13.     19.     13.     22.     18.      9.      9.     17.     14.      9.     0.0     0.0     0.0     0.0     0.0     0.0     0.0     0.0     0.0     0.0     0.0     0.0     0.0     0.0     0.5     0.2     0.1     0.0     0.0     0.0     0.0     0.0     0.0     0.0     0.0     0.0     0.1     0.1     0.1     0.1
 2022 147    27    0.00    0.00    0.00    0.02     4.7   0.000   0.005   0.022   0.017     0.0     0.1     0.1     1.9     175    0.02    0.18    1.88    0.47     0.0     0.0     0.0     0.0     0.9     0.5     0.3     0.1     0.0     0.0     16.     23.     15.     21.     20.     10.      9.     18.     15.      9.     0.0     0.0     0.0     0.0     0.0     0.0     0.0     0.0     0.0     0.0     0.0     0.0     0.0     0.0     0.9     0.5     0.3     0.1     0.0     0.0     0.0     0.0     0.0     0.0     0.0     0.0     0.0     0.1     0.1     0.1
 2022 148    28    0.00    0.00    0.00    0.03     4.9   0.000   0.005   0.029   0.018     0.0     0.1     0.1     7.2     202    0.07    0.20    7.13    0.47     0.3     0.7     0.9     2.1     1.3     1.0     0.5     0.3     0.1     0.0     19.     28.     19.     23.     22.     10.     11.     21.     17.     11.     0.0     0.0     0.0     0.0     0.0     0.0     0.0     0.0     0.0     0.0     0.3     0.7     0.9     2.1     1.3     1.0     0.5     0.3     0.1     0.0     0.0     0.0     0.0     0.0     0.0     0.0     0.0     0.1     0.1     0.1
 2022 149    29    0.00    0.00    0.00    0.04     5.2   0.000   0.005   0.038   0.018     0.0     0.1     0.0     8.9     234    0.09    0.23    8.84    0.45     0.4     0.8     0.9     2.1     1.7     1.2     1.0     0.5     0.2     0.1     23.     34.     23.     28.     23.     10.     11.     25.     20.     12.     0.0     0.0     0.0     0.0     0.0     0.0     0.0     0.0     0.0     0.0     0.4     0.8     0.9     2.1     1.7     1.2     1.0     0.5     0.2     0.1     0.0     0.0     0.0     0.0     0.0     0.0     0.0     0.1     0.1     0.1
 2022 150    30    0.00    0.00    0.00    0.05     5.5   0.000   0.005   0.049   0.019     0.0     0.1     0.0    10.9     282    0.11    0.28   10.75    0.40     0.4     0.8     0.9     2.2     2.1     1.3     1.4     1.1     0.5     0.2     27.     42.     28.     35.     26.     13.     12.     30.     24.     15.     0.0     0.0     0.0     0.1     0.0     0.0     0.0     0.0     0.0     0.0     0.4     0.8     0.9     2.1     2.1     1.3     1.3     1.1     0.5     0.2     0.0     0.0     0.0     0.0     0.0     0.0     0.0     0.0     0.1     0.1
 2022 151    31    0.00    0.00    0.00    0.06     5.8   0.000   0.006   0.060   0.019     0.0     0.2     0.0    11.1     335    0.11    0.34   10.99    0.34     0.6     0.7     0.9     1.6     1.8     1.3     1.4     1.6     0.8     0.4     29.     59.     32.     49.     31.     14.     13.     32.     26.     16.     0.0     0.1     0.0     0.1     0.0     0.0     0.0     0.1     0.0     0.0     0.6     0.7     0.9     1.6     1.8     1.3     1.3     1.5     0.8     0.4     0.0     0.0     0.0     0.0     0.0     0.0     0.0     0.0     0.0     0.0
 2022 152    32    0.00    0.01    0.00    0.07     6.2   0.001   0.006   0.066   0.020     0.1     0.5     0.1     6.0     401    0.06    0.40    5.90    0.66     0.4     0.4     0.5     0.8     0.9     0.6     0.8     0.6     0.5     0.3     40.     65.     47.     57.     40.     20.     19.     33.     27.     17.     0.0     0.1     0.1     0.1     0.0     0.0     0.0     0.0     0.0     0.0     0.4     0.4     0.5     0.8     0.9     0.6     0.7     0.6     0.5     0.3     0.1     0.0     0.0     0.0     0.0     0.0     0.0     0.1     0.1     0.1
 2022 153    33    0.00    0.01    0.00    0.07     6.6   0.001   0.007   0.069   0.021     0.1     1.0     0.3     3.0     373    0.03    0.37    2.98    1.15     0.1     0.2     0.3     0.4     0.4     0.3     0.3     0.4     0.2     0.1     35.     58.     42.     52.     37.     19.     18.     33.     26.     17.     0.0     0.1     0.0     0.1     0.0     0.0     0.0     0.0     0.0     0.0     0.1     0.2     0.3     0.4     0.4     0.3     0.3     0.4     0.2     0.1     0.2     0.1     0.0     0.1     0.1     0.0     0.0     0.1     0.1     0.1
 2022 154    34    0.00    0.01    0.00    0.07     6.9   0.001   0.007   0.070   0.022     0.2     1.4     0.4     1.4     342    0.01    0.34    1.37    1.57     0.0     0.1     0.1     0.2     0.2     0.2     0.2     0.2     0.1     0.1     31.     52.     37.     47.     34.     17.     16.     31.     25.     16.     0.0     0.1     0.0     0.0     0.0     0.0     0.0     0.0     0.0     0.0     0.0     0.1     0.1     0.2     0.2     0.2     0.2     0.2     0.1     0.1     0.2     0.2     0.1     0.1     0.1     0.1     0.1     0.2     0.2     0.1
 2022 155    35    0.00    0.01    0.00    0.07     7.2   0.001   0.007   0.071   0.024     0.2     1.5     0.5     0.6     317    0.00    0.32    0.56    1.74     0.0     0.0     0.0     0.1     0.1     0.1     0.1     0.1     0.1     0.0     28.     47.     34.     44.     32.     16.     15.     29.     24.     15.     0.0     0.0     0.0     0.0     0.0     0.0     0.0     0.0     0.0     0.0     0.0     0.0     0.0     0.1     0.1     0.1     0.1     0.1     0.0     0.0     0.2     0.2     0.1     0.2     0.2     0.1     0.1     0.2     0.2     0.1
 2022 156    36    0.00    0.01    0.00    0.07     7.6   0.001   0.008   0.071   0.026     0.2     1.6     0.6     0.2     337    0.00    0.34    0.19    1.97     0.0     0.0     0.0     0.0     0.0     0.0     0.0     0.0     0.0     0.0     26.     51.     37.     47.     34.     17.     16.     31.     26.     16.     0.0     0.1     0.0     0.0     0.0     0.0     0.0     0.0     0.0     0.0     0.0     0.0     0.0     0.0     0.0     0.0     0.0     0.0     0.0     0.0     0.2     0.3     0.1     0.2     0.2     0.1     0.1     0.2     0.2     0.1
 2022 157    37    0.00    0.01    0.00    0.07     7.9   0.001   0.008   0.071   0.028     0.2     1.8     0.6     0.1     364    0.00    0.36    0.06    2.14     0.0     0.0     0.0     0.0     0.0     0.0     0.0     0.0     0.0     0.0     25.     56.     40.     51.     37.     19.     18.     34.     28.     18.     0.0     0.1     0.0     0.1     0.0     0.0     0.0     0.0     0.0     0.0     0.0     0.0     0.0     0.0     0.0     0.0     0.0     0.0     0.0     0.0     0.2     0.3     0.1     0.2     0.2     0.1     0.1     0.2     0.2     0.1
 2022 158    38    0.00    0.01    0.01    0.07     8.3   0.001   0.008   0.071   0.031     0.3     1.9     0.7     0.0     402    0.00    0.40    0.01    2.37     0.0     0.0     0.0     0.0     0.0     0.0     0.0     0.0     0.0     0.0     28.     61.     44.     57.     41.     21.     20.     38.     31.     20.     0.0     0.1     0.0     0.1     0.0     0.0     0.0     0.0     0.0     0.0     0.0     0.0     0.0     0.0     0.0     0.0     0.0     0.0     0.0     0.0     0.2     0.3     0.1     0.3     0.3     0.2     0.1     0.3     0.2     0.1
 2022 159    39    0.00    0.02    0.01    0.07     8.8   0.001   0.009   0.071   0.033     0.1     0.7     0.3     0.0     429    0.00    0.43    0.01    2.29     0.0     0.0     0.0     0.0     0.0     0.0     0.0     0.0     0.0     0.0     39.     64.     46.     59.     43.     19.     21.     40.     32.     21.     0.0     0.1     0.0     0.1     0.0     0.0     0.0     0.0     0.0     0.0     0.0     0.0     0.0     0.0     0.0     0.0     0.0     0.0     0.0     0.0     0.0     0.3     0.1     0.3     0.3     0.1     0.1     0.3     0.2     0.1
 2022 160    40    0.00    0.02    0.01    0.07     9.2   0.001   0.009   0.071   0.035     0.3     1.9     0.8     0.0     437    0.00    0.44    0.00    2.53     0.0     0.0     0.0     0.0     0.0     0.0     0.0     0.0     0.0     0.0     39.     65.     46.     60.     44.     20.     19.     42.     33.     22.     0.0     0.1     0.0     0.1     0.0     0.0     0.0     0.0     0.0     0.0     0.0     0.0     0.0     0.0     0.0     0.0     0.0     0.0     0.0     0.0     0.2     0.3     0.1     0.3     0.3     0.1     0.1     0.3     0.2     0.2
 2022 161    41    0.00    0.02    0.01    0.07     9.6   0.001   0.010   0.071   0.038     0.4     2.5     1.1     0.0     440    0.00    0.44    0.00    2.61     0.0     0.0     0.0     0.0     0.0     0.0     0.0     0.0     0.0     0.0     39.     65.     46.     60.     44.     20.     19.     43.     34.     22.     0.0     0.1     0.0     0.1     0.0     0.0     0.0     0.0     0.0     0.0     0.0     0.0     0.0     0.0     0.0     0.0     0.0     0.0     0.0     0.0     0.3     0.3     0.1     0.3     0.3     0.1     0.1     0.3     0.2     0.2
 2022 162    42    0.00    0.02    0.01    0.07    10.1   0.001   0.010   0.071   0.041     0.4     2.5     1.1     0.0     446    0.00    0.45    0.00    2.65     0.0     0.0     0.0     0.0     0.0     0.0     0.0     0.0     0.0     0.0     39.     65.     46.     60.     45.     21.     20.     43.     35.     23.     0.0     0.1     0.0     0.1     0.0     0.0     0.0     0.0     0.0     0.0     0.0     0.0     0.0     0.0     0.0     0.0     0.0     0.0     0.0     0.0     0.3     0.3     0.1     0.3     0.3     0.2     0.1     0.3     0.2     0.2
 2022 163    43    0.00    0.02    0.01    0.07    10.6   0.001   0.011   0.071   0.043     0.4     2.5     1.2     0.0     472    0.00    0.47    0.00    2.80     0.0     0.0     0.0     0.0     0.0     0.0     0.0     0.0     0.0     0.0     38.     69.     49.     64.     48.     23.     22.     46.     37.     24.     0.0     0.1     0.0     0.1     0.0     0.0     0.0     0.0     0.0     0.0     0.0     0.0     0.0     0.0     0.0     0.0     0.0     0.0     0.0     0.0     0.3     0.4     0.2     0.3     0.3     0.2     0.2     0.3     0.3     0.2
 2022 164    44    0.00    0.03    0.01    0.07    11.1   0.001   0.011   0.071   0.047     0.4     2.5     1.3     0.0     531    0.00    0.53    0.00    3.15     0.0     0.0     0.0     0.0     0.0     0.0     0.0     0.0     0.0     0.0     39.     79.     55.     73.     54.     26.     25.     52.     42.     27.     0.0     0.1     0.1     0.1     0.1     0.0     0.0     0.1     0.0     0.0     0.0     0.0     0.0     0.0     0.0     0.0     0.0     0.0     0.0     0.0     0.3     0.4     0.2     0.3     0.4     0.2     0.2     0.4     0.3     0.2
 2022 165    45    0.00    0.03    0.01    0.07    11.7   0.001   0.012   0.071   0.050     0.4     2.5     1.4     0.0     623    0.00    0.62    0.00    3.69     0.0     0.0     0.0     0.0     0.0     0.0     0.0     0.0     0.0     0.0     41.     93.     65.     87.     64.     31.     30.     62.     50.     32.     0.0     0.1     0.1     0.1     0.1     0.0     0.0     0.1     0.0     0.0     0.0     0.0     0.0     0.0     0.0     0.0     0.0     0.0     0.0     0.0     0.3     0.5     0.2     0.4     0.4     0.2     0.2     0.4     0.3     0.2
 2022 166    46    0.00    0.03    0.01    0.07    12.3   0.001   0.012   0.071   0.054     0.4     2.5     1.5     0.0     636    0.00    0.64    0.00    3.79     0.0     0.0     0.0     0.0     0.0     0.0     0.0     0.0     0.0     0.0     37.     91.     64.     89.     66.     33.     31.     64.     53.     34.     0.0     0.1     0.1     0.1     0.1     0.0     0.0     0.1     0.1     0.0     0.0     0.0     0.0     0.0     0.0     0.0     0.0     0.0     0.0     0.0     0.3     0.5     0.2     0.4     0.4     0.2     0.2     0.4     0.4     0.2
 2022 167    47    0.01    0.03    0.02    0.07    13.0   0.001   0.013   0.071   0.058     0.4     2.5     1.6     0.0     632    0.00    0.63    0.00    3.78     0.0     0.0     0.0     0.0     0.0     0.0     0.0     0.0     0.0     0.0     34.     85.     61.     89.     67.     33.     32.     66.     54.     35.     0.0     0.1     0.1     0.1     0.1     0.0     0.0     0.1     0.1     0.0     0.0     0.0     0.0     0.0     0.0     0.0     0.0     0.0     0.0     0.0     0.2     0.4     0.2     0.4     0.4     0.2     0.2     0.5     0.4     0.2
 2022 168    48    0.01    0.04    0.02    0.07    13.6   0.001   0.014   0.071   0.061     0.4     2.5     1.7     0.0     587    0.00    0.59    0.00    3.54     0.0     0.0     0.0     0.0     0.0     0.0     0.0     0.0     0.0     0.0     28.     75.     54.     82.     63.     32.     30.     63.     52.     34.     0.0     0.1     0.1     0.1     0.1     0.0     0.0     0.1     0.1     0.0     0.0     0.0     0.0     0.0     0.0     0.0     0.0     0.0     0.0     0.0     0.2     0.4     0.2     0.4     0.4     0.2     0.2     0.4     0.4     0.2
 2022 169    49    0.01    0.04    0.02    0.07    14.2   0.001   0.014   0.071   0.065     0.4     2.4     1.7     0.0     597    0.00    0.60    0.00    3.62     0.0     0.0     0.0     0.0     0.0     0.0     0.0     0.0     0.0     0.0     27.     72.     53.     84.     65.     33.     32.     65.     54.     35.     0.0     0.1     0.1     0.1     0.1     0.0     0.0     0.1     0.1     0.0     0.0     0.0     0.0     0.0     0.0     0.0     0.0     0.0     0.0     0.0     0.2     0.4     0.2     0.4     0.4     0.2     0.2     0.4     0.4     0.2