*Soil Organic Matter daily output file

*DSSAT Cropping System Model Ver. 4.8.2.000 -release  FEB 07, 2025 20:08:35

*RUN   1        : silt_loam_13in_irr        MZCER048 UNLI2201    1
 MODEL          : MZCER048 - Maize
 EXPERIMENT     : UNLI2201 MZ IRRIGATED MAIZE PRODUCTION
 DATA PATH      :
 TREATMENT  1   : silt_loam_13in_irr        MZCER048
  
@YEAR DOY   DAS    OMAC    SCDD    SOCD    SC0D    SCTD   SOMCT    LCTD    ONAC    SNDD    SOND    SN0D    SNTD   SOMNT    LNTD
 2022 120     0       0   14312  148718       0  148718  148718     0.0    0.00  1431.2 14871.8    0.00 14871.8 14871.8    0.00
 2022 121     1       0   14312  148717       0  148717  148717     0.0    0.00  1431.2 14871.7    0.00 14871.7 14871.7    0.00
 2022 122     2       0   14312  148716       0  148716  148716     0.0    0.00  1431.2 14871.6    0.00 14871.6 14871.6    0.00
 2022 123     3       0   14312  148715       0  148715  148715     0.0    0.00  1431.2 14871.5    0.00 14871.5 14871.5    0.00
 2022 124     4       0   14312  148714       0  148714  148714     0.0    0.00  1431.2 14871.4    0.00 14871.4 14871.4    0.00
 2022 125     5       0   14311  148714       0  148714  148714     0.0    0.00  1431.1 14871.4    0.00 14871.4 14871.4    0.00
 2022 126     6       0   14311  148714       0  148714  148714     0.0    0.00  1431.1 14871.4    0.00 14871.4 14871.4    0.00
 2022 127     7       0   14311  148713       0  148713  148713     0.0    0.00  1431.1 14871.3    0.00 14871.3 14871.3    0.00
 2022 128     8       0   14311  148712       0  148712  148712     0.0    0.00  1431.1 14871.2    0.00 14871.2 14871.2    0.00
 2022 129     9       0   14311  148710       0  148710  148710     0.0    0.00  1431.1 14871.0    0.00 14871.0 14871.0    0.00
 2022 130    10       0   14310  148707       0  148707  148707     0.0    0.00  1431.0 14870.7    0.00 14870.7 14870.7    0.00
 2022 131    11       0   14310  148703       0  148703  148703     0.0    0.00  1431.0 14870.3    0.00 14870.3 14870.3    0.00
 2022 132    12       0   14309  148700       0  148700  148700     0.0    0.00  1430.9 14870.0    0.00 14870.0 14870.0    0.00
 2022 133    13       0   14309  148695       0  148695  148695     0.0    0.00  1430.9 14869.6    0.00 14869.6 14869.6    0.00
 2022 134    14       0   14308  148692       0  148692  148692     0.0    0.00  1430.8 14869.2    0.00 14869.2 14869.2    0.00
 2022 135    15       0   14308  148688       0  148688  148688     0.0    0.00  1430.8 14868.8    0.00 14868.8 14868.8    0.00
 2022 136    16       0   14307  148684       0  148684  148684     0.0    0.00  1430.7 14868.4    0.00 14868.4 14868.4    0.00
 2022 137    17       0   14307  148680       0  148680  148680     0.0    0.00  1430.7 14868.0    0.00 14868.0 14868.0    0.00
 2022 138    18       0   14306  148677       0  148677  148677     0.0    0.00  1430.6 14867.7    0.00 14867.7 14867.7    0.00
 2022 139    19       0   14306  148673       0  148673  148673     0.0    0.00  1430.6 14867.3    0.00 14867.3 14867.3    0.00
 2022 140    20       0   14305  148668       0  148668  148668     0.0    0.00  1430.5 14866.8    0.00 14866.8 14866.8    0.00
 2022 141    21       0   14305  148665       0  148665  148665     0.0    0.00  1430.5 14866.5    0.00 14866.5 14866.5    0.00
 2022 142    22       0   14304  148662       0  148662  148662     0.0    0.00  1430.4 14866.2    0.00 14866.2 14866.2    0.00
 2022 143    23       0   14304  148660       0  148660  148660     0.0    0.00  1430.4 14866.0    0.00 14866.0 14866.0    0.00
 2022 144    24       0   14304  148658       0  148658  148658     0.0    0.00  1430.4 14865.8    0.00 14865.8 14865.8    0.00
 2022 145    25       0   14304  148657       0  148657  148657     0.0    0.00  1430.4 14865.7    0.00 14865.7 14865.7    0.00
 2022 146    26       0   14304  148656       0  148656  148656     0.0    0.00  1430.4 14865.6    0.00 14865.6 14865.6    0.00
 2022 147    27       0   14303  148655       0  148655  148655     0.0    0.00  1430.3 14865.5    0.00 14865.5 14865.5    0.00
 2022 148    28       0   14303  148652       0  148652  148652     0.0    0.00  1430.3 14865.2    0.00 14865.2 14865.2    0.00
 2022 149    29       0   14303  148649       0  148649  148649     0.0    0.00  1430.3 14864.9    0.00 14864.9 14864.9    0.00
 2022 150    30       0   14302  148645       0  148645  148645     0.0    0.00  1430.2 14864.5    0.00 14864.5 14864.5    0.00
 2022 151    31       0   14302  148641       0  148641  148641     0.0    0.00  1430.2 14864.1    0.00 14864.1 14864.1    0.00
 2022 152    32       0   14301  148637       0  148637  148637     0.0    0.00  1430.1 14863.7    0.00 14863.7 14863.7    0.00
 2022 153    33       0   14301  148633       0  148633  148633     0.1    0.00  1430.1 14863.3    0.00 14863.3 14863.3    0.00
 2022 154    34       0   14300  148630       0  148630  148630     0.2    0.00  1430.0 14863.0    0.00 14863.0 14863.0    0.00
 2022 155    35       0   14300  148627       0  148627  148627     0.3    0.00  1430.0 14862.7    0.00 14862.7 14862.7    0.01
 2022 156    36       0   14299  148624       0  148624  148624     0.4    0.00  1429.9 14862.4    0.00 14862.4 14862.4    0.01
 2022 157    37       0   14299  148621       0  148621  148620     0.5    0.00  1429.9 14862.0    0.00 14862.0 14862.0    0.01
 2022 158    38       0   14298  148616       0  148616  148616     0.7    0.00  1429.8 14861.6    0.00 14861.6 14861.6    0.01
 2022 159    39       0   14298  148612       0  148612  148611     0.9    0.00  1429.8 14861.1    0.00 14861.1 14861.1    0.02
 2022 160    40       0   14297  148608       0  148608  148607     1.1    0.00  1429.7 14860.7    0.00 14860.7 14860.7    0.02
 2022 161    41       0   14297  148604       0  148604  148602     1.4    0.00  1429.7 14860.2    0.00 14860.2 14860.2    0.02
 2022 162    42       0   14296  148599       0  148599  148598     1.7    0.00  1429.6 14859.8    0.00 14859.8 14859.8    0.03
 2022 163    43       0   14296  148595       0  148595  148593     2.0    0.00  1429.6 14859.3    0.00 14859.3 14859.3    0.03
 2022 164    44       0   14295  148590       0  148590  148587     2.4    0.00  1429.5 14858.8    0.00 14858.8 14858.7    0.04
 2022 165    45       0   14294  148584       0  148584  148581     2.8    0.00  1429.4 14858.1    0.00 14858.1 14858.1    0.04
 2022 166    46       0   14293  148578       0  148578  148575     3.2    0.00  1429.3 14857.5    0.00 14857.5 14857.5    0.05
 2022 167    47       0   14293  148572       0  148572  148568     3.8    0.00  1429.3 14856.9    0.00 14856.9 14856.8    0.06
 2022 168    48       0   14292  148567       0  148567  148562     4.3    0.00  1429.2 14856.3    0.00 14856.3 14856.2    0.06
 2022 169    49       0   14292  148561       0  148561  148557     5.0    0.00  1429.2 14855.7    0.00 14855.7 14855.6    0.07
 2022 170    50       0   14291  148556       0  148556  148551     5.7    0.00  1429.1 14855.1    0.00 14855.1 14855.1    0.08
 2022 171    51       0   14291  148551       0  148551  148545     6.4    0.00  1429.1 14854.5    0.00 14854.5 14854.5    0.09
 2022 172    52       0   14290  148545       0  148545  148538     7.2    0.00  1429.0 14853.9    0.00 14853.9 14853.8    0.10
 2022 173    53       0   14290  148540       0  148540  148532     8.0    0.00  1429.0 14853.3    0.00 14853.3 14853.2    0.11
 2022 174    54       0   14289  148535       0  148535  148526     8.8    0.00  1428.9 14852.8    0.00 14852.8 14852.6    0.12
 2022 175    55       0   14289  148531       0  148531  148521     9.6    0.00  1428.9 14852.2    0.00 14852.2 14852.1    0.14
 2022 176    56       0   14288  148527       0  148527  148516    10.5    0.00  1428.8 14851.8    0.00 14851.8 14851.6    0.15
 2022 177    57       0   14288  148523       0  148523  148512    11.5    0.00  1428.8 14851.3    0.00 14851.3 14851.2    0.16
 2022 178    58       0   14288  148520       0  148520  148508    12.4    0.00  1428.8 14850.9    0.00 14850.9 14850.7    0.18
 2022 179    59       0   14288  148517       0  148517  148503    13.5    0.00  1428.8 14850.5    0.00 14850.5 14850.3    0.19
 2022 180    60       0   14287  148514       0  148514  148499    14.6    0.00  1428.7 14850.1    0.00 14850.1 14849.9    0.21
 2022 181    61       0   14287  148511       0  148511  148495    15.7    0.00  1428.7 14849.7    0.00 14849.7 14849.5    0.22
 2022 182    62       0   14287  148508       0  148508  148491    16.9    0.00  1428.7 14849.3    0.00 14849.3 14849.1    0.24
 2022 183    63       0   14287  148504       0  148504  148486    18.1    0.00  1428.7 14848.9    0.00 14848.9 14848.6    0.25
 2022 184    64       0   14286  148500       0  148500  148481    19.1    0.00  1428.6 14848.3    0.00 14848.3 14848.0    0.28
 2022 185    65       0   14285  148495       0  148495  148475    20.0    0.00  1428.5 14847.8    0.00 14847.8 14847.5    0.30
 2022 186    66       0   14284  148490       0  148490  148469    20.8    0.00  1428.4 14847.2    0.00 14847.2 14846.9    0.33
 2022 187    67       0   14284  148485       0  148485  148463    21.6    0.00  1428.3 14846.6    0.00 14846.6 14846.2    0.36
 2022 188    68       0   14283  148479       0  148479  148457    22.4    0.00  1428.3 14846.0    0.00 14846.0 14845.6    0.38
 2022 189    69       0   14282  148474       0  148474  148450    23.1    0.00  1428.2 14845.4    0.00 14845.4 14845.0    0.41
 2022 190    70       0   14281  148468       0  148468  148444    23.8    0.00  1428.1 14844.7    0.00 14844.7 14844.3    0.44
 2022 191    71       0   14280  148462       0  148462  148437    24.4    0.00  1428.0 14844.1    0.00 14844.1 14843.6    0.47
 2022 192    72       0   14280  148456       0  148456  148431    25.1    0.00  1427.9 14843.5    0.00 14843.5 14843.0    0.49
 2022 193    73       0   14279  148451       0  148451  148425    25.9    0.00  1427.8 14842.9    0.00 14842.9 14842.3    0.52
 2022 194    74       0   14278  148445       0  148445  148419    26.8    0.00  1427.8 14842.3    0.00 14842.3 14841.7    0.55
 2022 195    75       0   14277  148440       0  148440  148413    27.7    0.00  1427.7 14841.7    0.00 14841.7 14841.1    0.57
 2022 196    76       0   14277  148435       0  148435  148407    28.7    0.00  1427.6 14841.1    0.00 14841.1 14840.5    0.60
 2022 197    77       0   14276  148431       0  148431  148401    29.8    0.00  1427.6 14840.6    0.00 14840.6 14839.9    0.62
 2022 198    78       0   14276  148426       0  148426  148395    30.9    0.00  1427.5 14840.0    0.00 14840.0 14839.4    0.65
 2022 199    79       0   14275  148422       0  148422  148389    32.0    0.00  1427.5 14839.4    0.00 14839.4 14838.8    0.67
 2022 200    80       0   14275  148417       0  148417  148384    33.2    0.00  1427.4 14838.9    0.00 14838.9 14838.2    0.70
 2022 201    81       0   14274  148413       0  148413  148379    34.5    0.00  1427.4 14838.4    0.00 14838.4 14837.7    0.72
 2022 202    82       0   14274  148409       0  148409  148374    35.8    0.00  1427.3 14837.9    0.00 14837.9 14837.2    0.75
 2022 203    83       0   14273  148405       0  148405  148368    37.0    0.00  1427.3 14837.4    0.00 14837.4 14836.6    0.77
 2022 204    84       0   14273  148401       0  148401  148363    38.2    0.00  1427.2 14836.9    0.00 14836.9 14836.1    0.80
 2022 205    85       0   14272  148397       0  148397  148357    39.5    0.00  1427.1 14836.3    0.00 14836.3 14835.5    0.83
 2022 206    86       0   14271  148393       0  148393  148352    40.7    0.00  1427.1 14835.8    0.00 14835.8 14835.0    0.85
 2022 207    87       0   14271  148389       0  148389  148347    42.0    0.00  1427.0 14835.4    0.00 14835.4 14834.5    0.88
 2022 208    88       0   14270  148386       0  148386  148343    43.2    0.00  1427.0 14834.9    0.00 14834.9 14834.0    0.91
 2022 209    89       0   14270  148382       0  148382  148338    44.3    0.00  1426.9 14834.5    0.00 14834.5 14833.5    0.93
 2022 210    90       0   14269  148379       0  148379  148333    45.3    0.00  1426.8 14834.0    0.00 14834.0 14833.1    0.96
 2022 211    91       0   14269  148375       0  148375  148329    46.2    0.00  1426.8 14833.6    0.00 14833.6 14832.6    0.99
 2022 212    92       0   14268  148372       0  148372  148324    47.2    0.00  1426.7 14833.2    0.00 14833.2 14832.1    1.02
 2022 213    93       0   14267  148368       0  148368  148320    48.2    0.00  1426.6 14832.7    0.00 14832.7 14831.7    1.05
 2022 214    94       0   14267  148364       0  148364  148315    49.1    0.00  1426.6 14832.3    0.00 14832.3 14831.2    1.08
 2022 215    95       0   14266  148360       0  148360  148310    50.1    0.00  1426.5 14831.8    0.00 14831.8 14830.7    1.11
 2022 216    96       0   14265  148356       0  148356  148305    51.1    0.00  1426.4 14831.3    0.00 14831.3 14830.1    1.13
 2022 217    97       0   14265  148351       0  148351  148299    52.1    0.00  1426.4 14830.7    0.00 14830.7 14829.6    1.16
 2022 218    98       0   14264  148347       0  148347  148294    53.1    0.00  1426.3 14830.2    0.00 14830.2 14829.0    1.19
 2022 219    99       0   14264  148343       0  148343  148289    54.3    0.00  1426.2 14829.7    0.00 14829.7 14828.5    1.22
 2022 220   100       0   14263  148339       0  148339  148284    55.4    0.00  1426.2 14829.3    0.00 14829.3 14828.0    1.25
 2022 221   101       0   14263  148336       0  148336  148280    56.7    0.00  1426.1 14828.9    0.00 14828.9 14827.6    1.28
 2022 222   102       0   14262  148333       0  148333  148275    58.0    0.00  1426.1 14828.4    0.00 14828.4 14827.1    1.31
 2022 223   103       0   14262  148330       0  148330  148271    59.3    0.00  1426.1 14828.1    0.00 14828.1 14826.7    1.34
 2022 224   104       0   14261  148328       0  148328  148267    60.7    0.00  1426.0 14827.7    0.00 14827.7 14826.3    1.38
 2022 225   105       0   14261  148325       0  148325  148263    62.1    0.00  1426.0 14827.3    0.00 14827.3 14825.9    1.41
 2022 226   106       0   14261  148322       0  148322  148258    63.6    0.00  1425.9 14826.9    0.00 14826.9 14825.4    1.44
 2022 227   107       0   14260  148319       0  148319  148254    65.0    0.00  1425.9 14826.4    0.00 14826.4 14825.0    1.47
 2022 228   108       0   14260  148315       0  148315  148249    66.2    0.00  1425.9 14826.0    0.00 14826.0 14824.5    1.51
 2022 229   109       0   14259  148312       0  148312  148245    67.4    0.00  1425.8 14825.6    0.00 14825.6 14824.0    1.54
 2022 230   110       0   14259  148309       0  148309  148240    68.6    0.00  1425.8 14825.2    0.00 14825.2 14823.6    1.57
 2022 231   111       0   14259  148306       0  148306  148236    69.9    0.00  1425.7 14824.8    0.00 14824.8 14823.2    1.61
 2022 232   112       0   14258  148304       0  148304  148233    71.3    0.00  1425.7 14824.4    0.00 14824.4 14822.8    1.64
 2022 233   113       0   14258  148302       0  148302  148229    72.7    0.00  1425.7 14824.1    0.00 14824.1 14822.4    1.68
 2022 234   114       0   14258  148300       0  148300  148226    74.1    0.00  1425.6 14823.8    0.00 14823.8 14822.1    1.71
 2022 235   115       0   14257  148297       0  148297  148222    75.5    0.00  1425.6 14823.4    0.00 14823.4 14821.7    1.75
 2022 236   116       0   14257  148295       0  148295  148218    77.0    0.00  1425.6 14823.1    0.00 14823.1 14821.3    1.78
 2022 237   117       0   14257  148293       0  148293  148215    78.5    0.00  1425.5 14822.8    0.00 14822.8 14821.0    1.82
 2022 238   118       0   14257  148291       0  148291  148211    79.9    0.00  1425.5 14822.4    0.00 14822.4 14820.6    1.86
 2022 239   119       0   14256  148288       0  148288  148207    81.4    0.00  1425.5 14822.1    0.00 14822.1 14820.2    1.90
 2022 240   120       0   14256  148286       0  148286  148203    82.8    0.00  1425.4 14821.7    0.00 14821.7 14819.8    1.93
 2022 241   121       0   14256  148283       0  148283  148199    84.3    0.00  1425.4 14821.3    0.00 14821.3 14819.3    1.97
 2022 242   122       0   14255  148280       0  148280  148195    85.7    0.00  1425.4 14820.9    0.00 14820.9 14818.9    2.01
 2022 243   123       0   14255  148278       0  148278  148191    87.2    0.00  1425.4 14820.6    0.00 14820.6 14818.5    2.05
 2022 244   124       0   14255  148276       0  148276  148187    88.7    0.00  1425.3 14820.2    0.00 14820.2 14818.1    2.09
 2022 245   125       0   14255  148273       0  148273  148183    90.1    0.00  1425.3 14819.9    0.00 14819.9 14817.8    2.13
 2022 246   126       0   14254  148271       0  148271  148180    91.6    0.00  1425.3 14819.6    0.00 14819.6 14817.4    2.17
 2022 247   127       0   14254  148269       0  148269  148176    93.1    0.00  1425.3 14819.2    0.00 14819.2 14817.0    2.21
 2022 248   128       0   14254  148267       0  148267  148173    94.7    0.00  1425.2 14818.9    0.00 14818.9 14816.7    2.25
 2022 249   129       0   14254  148265       0  148265  148169    96.2    0.00  1425.2 14818.6    0.00 14818.6 14816.3    2.29
 2022 250   130       0   14253  148263       0  148263  148166    97.7    0.00  1425.2 14818.3    0.00 14818.3 14816.0    2.33
 2022 251   131       0   14253  148262       0  148262  148162    99.2    0.00  1425.2 14818.0    0.00 14818.0 14815.7    2.37
 2022 252   132       0   14253  148260       0  148260  148159   100.7    0.00  1425.1 14817.7    0.00 14817.7 14815.3    2.42
 2022 253   133       0   14253  148258       0  148258  148155   102.2    0.00  1425.1 14817.4    0.00 14817.4 14814.9    2.46
 2022 254   134       0   14253  148256       0  148256  148152   103.6    0.00  1425.1 14817.1    0.00 14817.1 14814.6    2.50
 2022 255   135       0   14252  148254       0  148254  148149   105.0    0.00  1425.1 14816.8    0.00 14816.8 14814.3    2.54
 2022 256   136       0   14252  148253       0  148253  148146   106.5    0.00  1425.1 14816.6    0.00 14816.6 14814.0    2.59
 2022 257   137       0   14252  148251       0  148251  148144   108.0    0.00  1425.0 14816.4    0.00 14816.4 14813.7    2.63
 2022 258   138       0   14252  148250       0  148250  148141   109.4    0.00  1425.0 14816.1    0.00 14816.1 14813.4    2.67
 2022 259   139       0   14252  148248       0  148248  148138   110.8    0.00  1425.0 14815.8    0.00 14815.8 14813.1    2.72
 2022 260   140       0   14251  148246       0  148246  148134   111.9    0.00  1425.0 14815.5    0.00 14815.5 14812.7    2.76
 2022 261   141       0   14251  148241       0  148241  148130   111.0    0.00  1424.9 14815.1    0.00 14815.1 14812.4    2.76
 2022 262   142       0   14251  148236       0  148236  148126   110.1    0.00  1424.9 14814.7    0.00 14814.7 14812.0    2.75
 2022 263   143       0   14250  148232       0  148232  148123   109.3    0.00  1424.8 14814.3    0.00 14814.3 14811.6    2.75
