*MANAGEMENT OPERATIONS DAILY OUTPUT FILE

*DSSAT Cropping System Model Ver. 4.8.2.000 -release  NOV 04, 2024 08:02:17

*RUN   1        : silt_loam_13in_irr        MZCER048 UNLI2201    1
 MODEL          : MZCER048 - Maize
 EXPERIMENT     : UNLI2201 MZ IRRIGATED MAIZE PRODUCTION
 DATA PATH      :
 TREATMENT  1   : silt_loam_13in_irr        MZCER048
  

@YEAR DOY   DAS   DAP  IR#C  IRRC  NAPC  NICM  R#AC RESNC RESPC
 2022 121     1     0     0     0     0     0     0     0     0
 2022 122     2     0     0     0     0     0     0     0     0
 2022 123     3     0     0     0     0     0     0     0     0
 2022 124     4     0     0     0     0     0     0     0     0
 2022 125     5     0     0     0     0     0     0     0     0
 2022 126     6     0     0     0     0     0     0     0     0
 2022 127     7     0     0     0     0     0     0     0     0
 2022 128     8     0     0     0     0     0     0     0     0
 2022 129     9     0     1     0     0     0     0     0     0
 2022 130    10     1     1     0     0     0     0     0     0
 2022 131    11     2     1     0     0     0     0     0     0
 2022 132    12     3     1     0     0     0     0     0     0
 2022 133    13     4     1     0     0     0     0     0     0
 2022 134    14     5     1     0     0     0     0     0     0
 2022 135    15     6     1     0     0     0     0     0     0
 2022 136    16     7     1     0     0     0     0     0     0
 2022 137    17     8     1     0     0     0     0     0     0
 2022 138    18     9     1     0     0     0     0     0     0
 2022 139    19    10     1     0     0     0     0     0     0
 2022 140    20    11     1     0     0     0     0     0     0
 2022 141    21    12     1     0     0     0     0     0     0
 2022 142    22    13     1     0     0     0     0     0     0
 2022 143    23    14     1     0     0     0     0     0     0
 2022 144    24    15     1     0     0     0     0     0     0
 2022 145    25    16     1     0     0     0     0     0     0
 2022 146    26    17     1     0     0     0     0     0     0
 2022 147    27    18     1     0     0     0     0     0     0
 2022 148    28    19     1     0     0     0     0     0     0
 2022 149    29    20     1     0     0     0     0     0     0
 2022 150    30    21     1     0     0     0     0     0     0
 2022 151    31    22     1     0     0     0     0     0     0
 2022 152    32    23     1     0     0     0     0     0     0
 2022 153    33    24     1     0     0     0     0     0     0
 2022 154    34    25     1     0     0     0     0     0     0
 2022 155    35    26     1     0     0     0     0     0     0
 2022 156    36    27     1     0     0     0     0     0     0
 2022 157    37    28     1     0     0     0     0     0     0
 2022 158    38    29     1     0     0     0     0     0     0
 2022 159    39    30     1     0     0     0     0     0     0
 2022 160    40    31     1     0     0     0     0     0     0
 2022 161    41    32     1     0     0     0     0     0     0
 2022 162    42    33     1     0     0     0     0     0     0
 2022 163    43    34     1     0     0     0     0     0     0
 2022 164    44    35     1     0     0     0     0     0     0
 2022 165    45    36     1     0     0     0     0     0     0
 2022 166    46    37     1     0     0     0     0     0     0
 2022 167    47    38     1     0     0     0     0     0     0
 2022 168    48    39     1     0     0     0     0     0     0
 2022 169    49    40     1     0     0     0     0     0     0
 2022 170    50    41     1     0     0     0     0     0     0
 2022 171    51    42     1     0     0     0     0     0     0
 2022 172    52    43     1     0     0     0     0     0     0
 2022 173    53    44     1     0     0     0     0     0     0
 2022 174    54    45     1     0     0     0     0     0     0
 2022 175    55    46     1     0     0     0     0     0     0
 2022 176    56    47     1     0     0     0     0     0     0
 2022 177    57    48     1     0     0     0     0     0     0
 2022 178    58    49     1     0     0     0     0     0     0
 2022 179    59    50     1     0     0     0     0     0     0
 2022 180    60    51     1     0     0     0     0     0     0
 2022 181    61    52     1     0     0     0     0     0     0
 2022 182    62    53     1     0     0     0     0     0     0
 2022 183    63    54     1     0     0     0     0     0     0
 2022 184    64    55     1     0     0     0     0     0     0
 2022 185    65    56     1     0     0     0     0     0     0
 2022 186    66    57     1     0     0     0     0     0     0
 2022 187    67    58     1     0     0     0     0     0     0
 2022 188    68    59     1     0     0     0     0     0     0
 2022 189    69    60     1     0     0     0     0     0     0
 2022 190    70    61     1     0     0     0     0     0     0
 2022 191    71    62     1     0     0     0     0     0     0
 2022 192    72    63     1     0     0     0     0     0     0
 2022 193    73    64     1     0     0     0     0     0     0
 2022 194    74    65     1     0     0     0     0     0     0
 2022 195    75    66     1     0     0     0     0     0     0
 2022 196    76    67     1     0     0     0     0     0     0
 2022 197    77    68     1     0     0     0     0     0     0
 2022 198    78    69     1     0     0     0     0     0     0
 2022 199    79    70     1     0     0     0     0     0     0
 2022 200    80    71     1     0     0     0     0     0     0
 2022 201    81    72     1     0     0     0     0     0     0
 2022 202    82    73     1     0     0     0     0     0     0
 2022 203    83    74     1     0     0     0     0     0     0
 2022 204    84    75     1     0     0     0     0     0     0
 2022 205    85    76     1     0     0     0     0     0     0
 2022 206    86    77     1     0     0     0     0     0     0
 2022 207    87    78     1     0     0     0     0     0     0
 2022 208    88    79     1     0     0     0     0     0     0
 2022 209    89    80     1     0     0     0     0     0     0
 2022 210    90    81     1     0     0     0     0     0     0
 2022 211    91    82     1     0     0     0     0     0     0
 2022 212    92    83     1     0     0     0     0     0     0
 2022 213    93    84     1     0     0     0     0     0     0
 2022 214    94    85     1     0     0     0     0     0     0
 2022 215    95    86     1     0     0     0     0     0     0
 2022 216    96    87     1     0     0     0     0     0     0
 2022 217    97    88     1     0     0     0     0     0     0
 2022 218    98    89     1     0     0     0     0     0     0
 2022 219    99    90     1     0     0     0     0     0     0
 2022 220   100    91     1     0     0     0     0     0     0
 2022 221   101    92     1     0     0     0     0     0     0
 2022 222   102    93     1     0     0     0     0     0     0
 2022 223   103    94     1     0     0     0     0     0     0
 2022 224   104    95     1     0     0     0     0     0     0
 2022 225   105    96     1     0     0     0     0     0     0
 2022 226   106    97     1     0     0     0     0     0     0
 2022 227   107    98     1     0     0     0     0     0     0
 2022 228   108    99     1     0     0     0     0     0     0
 2022 229   109   100     1     0     0     0     0     0     0
 2022 230   110   101     1     0     0     0     0     0     0
 2022 231   111   102     1     0     0     0     0     0     0
 2022 232   112   103     1     0     0     0     0     0     0
 2022 233   113   104     1     0     0     0     0     0     0
 2022 234   114   105     1     0     0     0     0     0     0
 2022 235   115   106     1     0     0     0     0     0     0
 2022 236   116   107     1     0     0     0     0     0     0
 2022 237   117   108     1     0     0     0     0     0     0
 2022 238   118   109     1     0     0     0     0     0     0
 2022 239   119   110     1     0     0     0     0     0     0
 2022 240   120   111     1     0     0     0     0     0     0
 2022 241   121   112     1     0     0     0     0     0     0
 2022 242   122   113     1     0     0     0     0     0     0
 2022 243   123   114     1     0     0     0     0     0     0
 2022 244   124   115     1     0     0     0     0     0     0
 2022 245   125   116     1     0     0     0     0     0     0
 2022 246   126   117     1     0     0     0     0     0     0
 2022 247   127   118     1     0     0     0     0     0     0
 2022 248   128   119     1     0     0     0     0     0     0
 2022 249   129   120     1     0     0     0     0     0     0
 2022 250   130   121     1     0     0     0     0     0     0
 2022 251   131   122     1     0     0     0     0     0     0
 2022 252   132   123     1     0     0     0     0     0     0
 2022 253   133   124     1     0     0     0     0     0     0
 2022 254   134   125     1     0     0     0     0     0     0
 2022 255   135   126     1     0     0     0     0     0     0
 2022 256   136   127     1     0     0     0     0     0     0
 2022 257   137   128     1     0     0     0     0     0     0
 2022 258   138   129     1     0     0     0     0     0     0
 2022 259   139   130     1     0     0     0     0     0     0
 2022 260   140   131     1     0     0     0     0     0     0
 2022 261   141   132     1     0     0     0     0     0     0
 2022 262   142   133     1     0     0     0     0     0     0
 2022 263   143   134     1     0     0     0     0     0     0
