*EXP.DETAILS: UNLI2201MZ IRRIGATED MAIZE PRODUCTION                                  

*FILES
@N  EXP.DATA    AFILE        ADIR
  1 EXP         UNLI2201.MZA                                                                                 
@N  SPECIES     SPFILE       SPDIR
  1 SPE         MZCER048.SPE C:\DSSAT48\GENOTYPE\                                                            
@N  ECOTYPE     EFILE        EDIR
  1 ECO         MZCER048.ECO C:\DSSAT48\GENOTYPE\                                                            
@N  CULTIVAR    CFILE        CDIR
  1 CUL         MZCER048.CUL C:\DSSAT48\GENOTYPE\                                                            
@N  SOIL        SFILE        SDIR
  1 SOIL        NE.SOL                                                                                       
@N  WEATHER     WFILE        WDIR
  1 WEATH       NENP2201.WTH                                                                                 

*SIMULATION CONTROL
@N  GENERAL     NYERS NREPS START   SDATE RSEED SNAME.................... MODEL...
  1 GE              1     1     S 2022121  2150 UNL                       MZCER048
@N  OPTIONS     WATER NITRO SYMBI PHOSP POTAS DISES  CHEM  TILL   CO2
  1 OP              Y     Y     N     N     N     N     N     N     W
@N  METHODS     WTHER INCON LIGHT EVAPO INFIL PHOTO HYDRO NSWIT SOMDY MESEV MESOL METMP MEGHG
  1 ME              M     M     E     R     S     R     R     1     G     S     2     D     0
@N  MANAGEMENT  PLANT IRRIG FERTI RESID HARVS
  1 MA              R     R     D     R     M
@N  OUTPUTS     FNAME OVVEW SUMRY FROPT GROUT CAOUT WAOUT NIOUT MIOUT DIOUT  LONG CHOUT OPOUT
  1 OU              Y     Y     A     1     Y     Y     Y     Y     Y     Y     A     Y     Y

!AUTOMATIC MANAGEM
@N  PLANTING      PFRST   PLAST PH2OL PH2OU PH2OD PSTMX PSTMN
  1 PL              -99     -99   40.  100.   30.   40.   10.
@N  IRRIGATION  IMDEP ITHRL ITHRU IROFF IMETH IRAMT IREFF
  1 IR           180.   50.  100. GS006 IR004 230.0 1.000
@N  NITROGEN    NMDEP NMTHR NAMNT NCODE NAOFF
  1 NI           100.    1.   20. FE001 GS000
@N  RESIDUES    RIPCN RTIME RIDEP
  1 RE             0. 96137  100.
@N  HARVEST     HFRST   HLAST HPCNP HRCNR
  1 HA              0     -99  100.    0.

*TREATMENTS
@N   R O C TNAME....................  CU  FL  SA  IC  MP  MI  MF  MR  MC  MT  ME  MH  SM
  1  0 0 0 silt_loam_13in_irr          1   1   0   0   1   1   1   0   0   0   0   0   1

*CULTIVARS
@C  CR INGENO CNAME
  1 MZ IB1066 PIO 3489        

*FIELDS
@L  ID_FIELD WSTA....  FLSA  FLOB  FLDT  FLDD  FLDS  FLST SLTX   SLDP ID_SOIL    PMALB  PMWD
  1 UCCO0001 NENP2201   0.0    0. DR000    0.  100. 00000 SL     200. NENP230001-99.00 -99.0
@L             XCRD            YCRD      ELEV              AREA  SLEN  FLWR  SLAS PRMGT
  1         0.00000         0.00000      0.00               1.0  100.   1.0   0.0   -99   -99

*INITIAL CONDITIONS
@C  PCR     ICDAT  ICRT  ICND  ICRN  ICRE  ICWD ICRES ICREN ICREP ICRIP ICRID
  0             0     0     0  1.00  1.00 -99.0     0  0.00  0.00  100.    0.
@C   ICBL  SH2O  SNH4  SNO3
  0    5. 0.200   0.0   0.0
  0   15. 0.207   0.0   0.0
  0   23. 0.210   0.0   0.0
  0   38. 0.210   0.0   0.0
  0   53. 0.170   0.0   0.0
  0   61. 0.150   0.0   0.0
  0   69. 0.150   0.0   0.0
  0   84. 0.190   0.0   0.0
  0   99. 0.180   0.0   0.0
  0  114. 0.180   0.0   0.0
  0  130. 0.180   0.0   0.0
  0  145. 0.200   0.0   0.0
  0  160. 0.190   0.0   0.0

*PLANTING DETAILS
@P    PDATE   EDATE  PPOP  PPOE  PLME  PLDS  PLRS  PLRD  PLDP  PLWT  PAGE  PENV  PLPH  SPRL
  1 2022129     -99   8.0   8.0     S     R   30.    0.   5.0  -99.  -99. -99.0 -99.0 -99.0

*IRRIGATION
@I   IEFF  IDEP  ITHR  IEPT  IOFF  IAME  IAMT
  1 1.000   30.   50.  100. GS000 IR001  10.0
@I    IDATE  IROP IRVAL
  1 2022129 IR001   0.0
  1 2022129 IR001  25.4
  1 2022130 IR001  25.4
  1 2022131 IR001  25.4
  1 2022132 IR001  25.4
  1 2022133 IR001  25.4
  1 2022134 IR001  25.4
  1 2022135 IR001  25.4
  1 2022136 IR001  25.4
  1 2022137 IR001  25.4
  1 2022138 IR001  25.4
  1 2022139 IR001  25.4
  1 2022140 IR001  25.4
  1 2022141 IR001  25.4
  1 2022142 IR001  25.4
  1 2022143 IR001  25.4
  1 2022144 IR001  25.4
  1 2022145 IR001  25.4
  1 2022146 IR001  25.4
  1 2022147 IR001  25.4
  1 2022148 IR001  25.4
  1 2022149 IR001  25.4
  1 2022150 IR001  25.4
  1 2022151 IR001  25.4
  1 2022152 IR001  25.4
  1 2022153 IR001  25.4
  1 2022154 IR001  25.4
  1 2022155 IR001  25.4
  1 2022156 IR001  25.4
  1 2022157 IR001  25.4
  1 2022158 IR001  25.4
  1 2022159 IR001  25.4
  1 2022160 IR001  25.4
  1 2022161 IR001  25.4
  1 2022162 IR001  25.4
  1 2022163 IR001  25.4
  1 2022164 IR001  25.4
  1 2022165 IR001  25.4
  1 2022166 IR001  25.4
  1 2022167 IR001  25.4
  1 2022168 IR001  25.4
  1 2022169 IR001  25.4
  1 2022170 IR001  25.4
  1 2022171 IR001  25.4
  1 2022172 IR001  25.4
  1 2022173 IR001  25.4
  1 2022174 IR001  25.4
  1 2022175 IR001  25.4
  1 2022176 IR001  25.4
  1 2022177 IR001  25.4
  1 2022178 IR001  25.4
  1 2022179 IR001  25.4
  1 2022180 IR001  25.4
  1 2022181 IR001  25.4
  1 2022182 IR001  25.4
  1 2022183 IR001  25.4
  1 2022184 IR001  25.4
  1 2022185 IR001  25.4
  1 2022186 IR001  25.4
  1 2022187 IR001  25.4
  1 2022188 IR001  25.4
  1 2022189 IR001  25.4
  1 2022190 IR001  25.4
  1 2022191 IR001  25.4
  1 2022192 IR001  25.4
  1 2022193 IR001  25.4
  1 2022194 IR001  25.4
  1 2022195 IR001  25.4
  1 2022196 IR001  25.4
  1 2022197 IR001  25.4
  1 2022198 IR001  25.4
  1 2022199 IR001  25.4
  1 2022200 IR001  25.4
  1 2022201 IR001  25.4
  1 2022202 IR001  25.4
  1 2022203 IR001  25.4
  1 2022204 IR001  25.4
  1 2022205 IR001  25.4
  1 2022206 IR001  25.4
  1 2022207 IR001  25.4
  1 2022208 IR001  25.4
  1 2022209 IR001  25.4
  1 2022210 IR001  25.4
  1 2022211 IR001  25.4
  1 2022212 IR001  25.4
  1 2022213 IR001  25.4
  1 2022214 IR001  25.4
  1 2022215 IR001  25.4
  1 2022216 IR001  25.4
  1 2022217 IR001  25.4
  1 2022218 IR001  25.4
  1 2022219 IR001  25.4
  1 2022220 IR001  25.4
  1 2022221 IR001  25.4
  1 2022222 IR001  25.4
  1 2022223 IR001  25.4
  1 2022224 IR001  25.4
  1 2022225 IR001  25.4
  1 2022226 IR001  25.4
  1 2022227 IR001  25.4
  1 2022228 IR001  25.4
  1 2022229 IR001  25.4
  1 2022230 IR001  25.4
  1 2022231 IR001  25.4
  1 2022232 IR001  25.4
  1 2022233 IR001  25.4
  1 2022234 IR001  25.4
  1 2022235 IR001  25.4
  1 2022236 IR001  25.4
  1 2022237 IR001  25.4
  1 2022238 IR001  25.4
  1 2022239 IR001  25.4
  1 2022240 IR001  25.4
  1 2022241 IR001  25.4
  1 2022242 IR001  25.4
  1 2022243 IR001  25.4
  1 2022244 IR001  25.4
  1 2022245 IR001  25.4
  1 2022246 IR001  25.4
  1 2022247 IR001  25.4
  1 2022248 IR001  25.4
  1 2022249 IR001  25.4
  1 2022250 IR001  25.4
  1 2022251 IR001  25.4
  1 2022252 IR001  25.4
  1 2022253 IR001  25.4
  1 2022254 IR001  25.4
  1 2022255 IR001  25.4
  1 2022256 IR001  25.4
  1 2022257 IR001  25.4
  1 2022258 IR001  25.4
  1 2022259 IR001  25.4
  1 2022260 IR001  25.4
  1 2022261 IR001  25.4
  1 2022262 IR001  25.4
  1 2022263 IR001  25.4
  1 2022264 IR001  25.4
  1 2022265 IR001  25.4
  1 2022266 IR001  25.4
  1 2022267 IR001  25.4
  1 2022268 IR001  25.4
  1 2022269 IR001  25.4
  1 2022270 IR001  25.4
  1 2022271 IR001  25.4
  1 2022272 IR001  25.4
  1 2022273 IR001  25.4
  1 2022274 IR001  25.4
  1 2022275 IR001  25.4
  1 2022276 IR001  25.4
  1 2022277 IR001  25.4
  1 2022278 IR001  25.4
  1 2022279 IR001  25.4
  1 2022280 IR001  25.4
  1 2022281 IR001  25.4
  1 2022282 IR001  25.4
  1 2022283 IR001  25.4
  1 2022284 IR001  25.4
  1 2022285 IR001  25.4
  1 2022286 IR001  25.4
  1 2022287 IR001  25.4
  1 2022288 IR001  25.4
  1 2022289 IR001  25.4

*FERTILIZERS
@F    FDATE  FMCD  FACD  FDEP  FAMN  FAMP  FAMK  FAMC  FAMO  FOCD
  1   22129 FE001 AP001   10.    0.  -99.  -99.  -99.  -99.   -99

*RESIDUES
@R    RDATE  RCOD  RAMT  RESN  RESP  RESK  RINP  RDEP  RMET

*CHEMICALS
@C    CDATE CHCOD CHAMT  CHME CHDEP   CHT

*TILLAGE
@T    TDATE TIMPL  TDEP

*ENVIRONMENT
@E    ODATE  EDAY  ERAD  EMAX  EMIN ERAIN  ECO2  EDEW EWIND

*HARVEST
@H    HDATE  HSTG  HCOM HSIZE   HPC  HBPC
