*EXP.DETAILS: UNLI2201MZ IRRIGATED MAIZE PRODUCTION

*GENERAL
@PEOPLE
-99
@ADDRESS
-99
@SITE
-99
@ PAREA  PRNO  PLEN  PLDR  PLSP  PLAY HAREA  HRNO  HLEN  HARM.........
    -99   -99   -99   -99   -99   -99   -99   -99   -99   -99

*TREATMENTS                        -------------FACTOR LEVELS------------
@N R O C TNAME.................... CU FL SA IC MP MI MF MR MC MT ME MH SM
 1 0 0 0 silt_loam_13in_irr         1  1  0  0  1  1  1  0  0  0  0  0  1

*CULTIVARS
@C CR INGENO CNAME
 1 MZ IB1066 PIO 3489

*FIELDS
@L ID_FIELD WSTA....  FLSA  FLOB  FLDT  FLDD  FLDS  FLST SLTX  SLDP  ID_SOIL    FLNAME
 1 UCCO0001 NENP2201   -99     0 DR000     0     0 00000 -99    200  NENP230001 Silt loam
@L ...........XCRD ...........YCRD .....ELEV .............AREA .SLEN .FLWR .SLAS FLHST FHDUR
 1               0               0         0                 0     0     0     0   -99   -99

*SOIL ANALYSIS
@A SADAT  SMHB  SMPX  SMKE  SANAME
 1 22121   -99   -99   -99  -99
@A  SABL  SADM  SAOC  SANI SAPHW SAPHB  SAPX  SAKE  SASC
 1    15   -99   -99   -99   -99   -99   -99   -99   -99

*INITIAL CONDITIONS
@C   PCR ICDAT  ICRT  ICND  ICRN  ICRE  ICWD ICRES ICREN ICREP ICRIP ICRID ICNAME
 1    MZ 22001   -99     0     0     0   -99     0   -99     0   100   -99 -99
@C  ICBL  SH2O  SNH4  SNO3
 1    10  .176    .2   1.9
 1    30  .176    .2   1.9
 1    60  .176    .2   1.9
 1    90  .176    .2   1.9
 1   120  .176    .2   1.9
 1   150  .176    .2   1.9

*PLANTING DETAILS
@P PDATE EDATE  PPOP  PPOE  PLME  PLDS  PLRS  PLRD  PLDP  PLWT  PAGE  PENV  PLPH  SPRL                        PLNAME
 1 22129   -99     8     8     S     R    30     0     5   -99   -99   -99   -99   -99                        Maize

*IRRIGATION AND WATER MANAGEMENT
@I  EFIR  IDEP  ITHR  IEPT  IOFF  IAME  IAMT IRNAME
 1     1    30    50   100 GS000 IR001    10 13 in irrigation
@I IDATE  IROP IRVAL
 1 22129 IR001     0
 1 22129 IR001  25.4
 1 22130 IR001  25.4
 1 22131 IR001  25.4
 1 22132 IR001  25.4
 1 22133 IR001  25.4
 1 22134 IR001  25.4
 1 22135 IR001  25.4
 1 22136 IR001  25.4
 1 22137 IR001  25.4
 1 22138 IR001  25.4
 1 22139 IR001  25.4
 1 22140 IR001  25.4
 1 22141 IR001  25.4
 1 22142 IR001  25.4
 1 22143 IR001  25.4
 1 22144 IR001  25.4
 1 22145 IR001  25.4
 1 22146 IR001  25.4
 1 22147 IR001  25.4
 1 22148 IR001  25.4
 1 22149 IR001  25.4
 1 22150 IR001  25.4
 1 22151 IR001  25.4
 1 22152 IR001  25.4
 1 22153 IR001  25.4
 1 22154 IR001  25.4
 1 22155 IR001  25.4
 1 22156 IR001  25.4
 1 22157 IR001  25.4
 1 22158 IR001  25.4
 1 22159 IR001  25.4
 1 22160 IR001  25.4
 1 22161 IR001  25.4
 1 22162 IR001  25.4
 1 22163 IR001  25.4
 1 22164 IR001  25.4
 1 22165 IR001  25.4
 1 22166 IR001  25.4
 1 22167 IR001  25.4
 1 22168 IR001  25.4
 1 22169 IR001  25.4
 1 22170 IR001  25.4
 1 22171 IR001  25.4
 1 22172 IR001  25.4
 1 22173 IR001  25.4
 1 22174 IR001  25.4
 1 22175 IR001  25.4
 1 22176 IR001  25.4
 1 22177 IR001  25.4
 1 22178 IR001  25.4
 1 22179 IR001  25.4
 1 22180 IR001  25.4
 1 22181 IR001  25.4
 1 22182 IR001  25.4
 1 22183 IR001  25.4
 1 22184 IR001  25.4
 1 22185 IR001  25.4
 1 22186 IR001  25.4
 1 22187 IR001  25.4
 1 22188 IR001  25.4
 1 22189 IR001  25.4
 1 22190 IR001  25.4
 1 22191 IR001  25.4
 1 22192 IR001  25.4
 1 22193 IR001  25.4
 1 22194 IR001  25.4
 1 22195 IR001  25.4
 1 22196 IR001  25.4
 1 22197 IR001  25.4
 1 22198 IR001  25.4
 1 22199 IR001  25.4
 1 22200 IR001  25.4
 1 22201 IR001  25.4
 1 22202 IR001  25.4
 1 22203 IR001  25.4
 1 22204 IR001  25.4
 1 22205 IR001  25.4
 1 22206 IR001  25.4
 1 22207 IR001  25.4
 1 22208 IR001  25.4
 1 22209 IR001  25.4
 1 22210 IR001  25.4
 1 22211 IR001  25.4
 1 22212 IR001  25.4
 1 22213 IR001  25.4
 1 22214 IR001  25.4
 1 22215 IR001  25.4
 1 22216 IR001  25.4
 1 22217 IR001  25.4
 1 22218 IR001  25.4
 1 22219 IR001  25.4
 1 22220 IR001  25.4
 1 22221 IR001  25.4
 1 22222 IR001  25.4
 1 22223 IR001  25.4
 1 22224 IR001  25.4
 1 22225 IR001  25.4
 1 22226 IR001  25.4
 1 22227 IR001  25.4
 1 22228 IR001  25.4
 1 22229 IR001  25.4
 1 22230 IR001  25.4
 1 22231 IR001  25.4
 1 22232 IR001  25.4
 1 22233 IR001  25.4
 1 22234 IR001  25.4
 1 22235 IR001  25.4
 1 22236 IR001  25.4
 1 22237 IR001  25.4
 1 22238 IR001  25.4
 1 22239 IR001  25.4
 1 22240 IR001  25.4
 1 22241 IR001  25.4
 1 22242 IR001  25.4
 1 22243 IR001  25.4
 1 22244 IR001  25.4
 1 22245 IR001  25.4
 1 22246 IR001  25.4
 1 22247 IR001  25.4
 1 22248 IR001  25.4
 1 22249 IR001  25.4
 1 22250 IR001  25.4
 1 22251 IR001  25.4
 1 22252 IR001  25.4
 1 22253 IR001  25.4
 1 22254 IR001  25.4
 1 22255 IR001  25.4
 1 22256 IR001  25.4
 1 22257 IR001  25.4
 1 22258 IR001  25.4
 1 22259 IR001  25.4
 1 22260 IR001  25.4
 1 22261 IR001  25.4
 1 22262 IR001  25.4
 1 22263 IR001  25.4
 1 22264 IR001  25.4
 1 22265 IR001  25.4
 1 22266 IR001  25.4
 1 22267 IR001  25.4
 1 22268 IR001  25.4
 1 22269 IR001  25.4
 1 22270 IR001  25.4
 1 22271 IR001  25.4
 1 22272 IR001  25.4
 1 22273 IR001  25.4
 1 22274 IR001  25.4
 1 22275 IR001  25.4
 1 22276 IR001  25.4
 1 22277 IR001  25.4
 1 22278 IR001  25.4
 1 22279 IR001  25.4
 1 22280 IR001  25.4
 1 22281 IR001  25.4
 1 22282 IR001  25.4
 1 22283 IR001  25.4
 1 22284 IR001  25.4
 1 22285 IR001  25.4
 1 22286 IR001  25.4
 1 22287 IR001  25.4
 1 22288 IR001  25.4
 1 22289 IR001  25.4

*FERTILIZERS (INORGANIC)
@F FDATE  FMCD  FACD  FDEP  FAMN  FAMP  FAMK  FAMC  FAMO  FOCD FERNAME
 1 22129 FE001 AP001    10     0   -99   -99   -99   -99   -99 -99

*HARVEST DETAILS
@H HDATE  HSTG  HCOM HSIZE   HPC  HBPC HNAME
 1 22261 GS000   -99   -99   -99   -99 Maize

*SIMULATION CONTROLS
@N GENERAL     NYERS NREPS START SDATE RSEED SNAME.................... SMODEL
 1 GE              1     1     S 22121  2150 UNL                       MZCER
@N OPTIONS     WATER NITRO SYMBI PHOSP POTAS DISES  CHEM  TILL   CO2
 1 OP              Y     Y     N     N     N     N     N     N     W
@N METHODS     WTHER INCON LIGHT EVAPO INFIL PHOTO HYDRO NSWIT MESOM MESEV MESOL
 1 ME              M     M     E     R     S     R     R     1     G     S     2
@N MANAGEMENT  PLANT IRRIG FERTI RESID HARVS
 1 MA              R     R     D     R     M
@N OUTPUTS     FNAME OVVEW SUMRY FROPT GROUT CAOUT WAOUT NIOUT MIOUT DIOUT VBOSE CHOUT OPOUT FMOPT
 1 OU              Y     Y     Y     1     Y     Y     Y     Y     Y     Y     A     Y     C     A

@  AUTOMATIC MANAGEMENT
@N PLANTING    PFRST PLAST PH2OL PH2OU PH2OD PSTMX PSTMN
 1 PL          95130 95144    40   100    30    40    10
@N IRRIGATION  IMDEP ITHRL ITHRU IROFF IMETH IRAMT IREFF
 1 IR            180    50   100 GS006 IR004   230     1
@N NITROGEN    NMDEP NMTHR NAMNT NCODE NAOFF
 1 NI            100     1    20 FE001 GS000
@N RESIDUES    RIPCN RTIME RIDEP
 1 RE              0 96137   100
@N HARVEST     HFRST HLAST HPCNP HPCNR
 1 HA              0 96137   100     0