*N2O emissions output file

*DSSAT Cropping System Model Ver. 4.8.2.000 -release  JAN 24, 2025 00:02:17

*RUN   1        : silt_loam_13in_irr        MZCER048 UNLI2201    1
 MODEL          : MZCER048 - Maize
 EXPERIMENT     : UNLI2201 MZ IRRIGATED MAIZE PRODUCTION
 DATA PATH      :
 TREATMENT  1   : silt_loam_13in_irr        MZCER048
  
!              |------------------------------ Cumulative -----------------------------|------------------------------ Daily ----------------------------------|
!               N2Oemit  N2emit  NOemit   Denit  Nitrif   N2O-denit+nit      N2      NO N2Oemit  N2emit  NOemit   Denit  Nitrif   N2O-denit+nit      N2      NO   Denitrification (g[N]/ha) by soil depth (cm):                                   Nitrification (g[N]/ha) by soil depth (cm):                                     N2O flux (g[N]/ha) by soil depth (cm):                                          N2 flux (g[N]/ha) by soil depth (cm):                                           NO flux (g[N]/ha) by soil depth (cm):
!                 kg/ha   kg/ha   kg/ha   kg/ha   kg/ha   kg/ha   kg/ha   kg/ha   kg/ha    g/ha    g/ha    g/ha    g/ha    g/ha    g/ha    g/ha    g/ha    g/ha     0-5    5-15   15-23   23-38   38-53   53-61   61-69   69-84   84-99  99-160     0-5    5-15   15-23   23-38   38-53   53-61   61-69   69-84   84-99  99-160     0-5    5-15   15-23   23-38   38-53   53-61   61-69   69-84   84-99  99-160     0-5    5-15   15-23   23-38   38-53   53-61   61-69   69-84   84-99  99-160     0-5    5-15   15-23   23-38   38-53   53-61   61-69   69-84   84-99  99-160
@YEAR DOY   DAS   N2OEC    N2EC    NOEC    NDNC    NITC   N2ODC   N2ONC   N2FLC   NOFLC  N2OGED   N2GED   NOGED    NDND   NITRD   N2ODD   N2OND   N2FLD   NOFLD   NDN1D   NDN2D   NDN3D   NDN4D   NDN5D   NDN6D   NDN7D   NDN8D   NDN9D   NDN10   NIT1D   NIT2D   NIT3D   NIT4D   NIT5D   NIT6D   NIT7D   NIT8D   NIT9D   NIT10   N2O1D   N2O2D   N2O3D   N2O4D   N2O5D   N2O6D   N2O7D   N2O8D   N2O9D   N2O10   N2F1D   N2F2D   N2F3D   N2F4D   N2F5D   N2F6D   N2F7D   N2F8D   N2F9D   N2F10   NOF1D   NOF2D   NOF3D   NOF4D   NOF5D   NOF6D   NOF7D   NOF8D   NOF9D   NOF10
 2022 121     1    0.00    0.00    0.00    0.00     0.0   0.000   0.000   0.000   0.000     0.0     0.0     0.0     0.0       0    0.00    0.00    0.00    0.00     0.0     0.0     0.0     0.0     0.0     0.0     0.0     0.0     0.0     0.0      0.      0.      0.      0.      0.      0.      0.      0.      0.      0.     0.0     0.0     0.0     0.0     0.0     0.0     0.0     0.0     0.0     0.0     0.0     0.0     0.0     0.0     0.0     0.0     0.0     0.0     0.0     0.0     0.0     0.0     0.0     0.0     0.0     0.0     0.0     0.0     0.0     0.0
 2022 122     2    0.00    0.00    0.00    0.00     0.0   0.000   0.000   0.000   0.000     0.0     0.0     0.0     0.0      14    0.00    0.01    0.00    0.30     0.0     0.0     0.0     0.0     0.0     0.0     0.0     0.0     0.0     0.0      2.      3.      2.      2.      1.      1.      1.      1.      1.      0.     0.0     0.0     0.0     0.0     0.0     0.0     0.0     0.0     0.0     0.0     0.0     0.0     0.0     0.0     0.0     0.0     0.0     0.0     0.0     0.0     0.0     0.0     0.0     0.0     0.0     0.0     0.0     0.0     0.0     0.0
 2022 123     3    0.00    0.00    0.00    0.00     0.0   0.000   0.000   0.000   0.001     0.0     0.0     0.0     0.0      22    0.00    0.02    0.00    0.26     0.0     0.0     0.0     0.0     0.0     0.0     0.0     0.0     0.0     0.0      2.      4.      3.      3.      3.      1.      1.      2.      1.      1.     0.0     0.0     0.0     0.0     0.0     0.0     0.0     0.0     0.0     0.0     0.0     0.0     0.0     0.0     0.0     0.0     0.0     0.0     0.0     0.0     0.0     0.0     0.0     0.0     0.0     0.0     0.0     0.0     0.0     0.0
 2022 124     4    0.00    0.00    0.00    0.00     0.1   0.000   0.000   0.000   0.001     0.0     0.0     0.0     0.0      28    0.00    0.03    0.00    0.26     0.0     0.0     0.0     0.0     0.0     0.0     0.0     0.0     0.0     0.0      3.      5.      3.      4.      3.      1.      1.      2.      2.      1.     0.0     0.0     0.0     0.0     0.0     0.0     0.0     0.0     0.0     0.0     0.0     0.0     0.0     0.0     0.0     0.0     0.0     0.0     0.0     0.0     0.0     0.0     0.0     0.0     0.0     0.0     0.0     0.0     0.0     0.0
 2022 125     5    0.00    0.00    0.00    0.00     0.1   0.000   0.000   0.000   0.001     0.0     0.0     0.0     0.0      28    0.00    0.03    0.00    0.19     0.0     0.0     0.0     0.0     0.0     0.0     0.0     0.0     0.0     0.0      3.      6.      4.      4.      3.      1.      1.      2.      1.      1.     0.0     0.0     0.0     0.0     0.0     0.0     0.0     0.0     0.0     0.0     0.0     0.0     0.0     0.0     0.0     0.0     0.0     0.0     0.0     0.0     0.0     0.0     0.0     0.0     0.0     0.0     0.0     0.0     0.0     0.0
 2022 126     6    0.00    0.00    0.00    0.00     0.1   0.000   0.000   0.000   0.001     0.0     0.0     0.0     0.0      28    0.00    0.03    0.00    0.14     0.0     0.0     0.0     0.0     0.0     0.0     0.0     0.0     0.0     0.0      4.      6.      4.      4.      3.      1.      1.      2.      1.      1.     0.0     0.0     0.0     0.0     0.0     0.0     0.0     0.0     0.0     0.0     0.0     0.0     0.0     0.0     0.0     0.0     0.0     0.0     0.0     0.0     0.0     0.0     0.0     0.0     0.0     0.0     0.0     0.0     0.0     0.0
 2022 127     7    0.00    0.00    0.00    0.00     0.1   0.000   0.000   0.000   0.001     0.0     0.0     0.0     0.0      30    0.00    0.03    0.00    0.17     0.0     0.0     0.0     0.0     0.0     0.0     0.0     0.0     0.0     0.0      4.      6.      4.      5.      3.      1.      1.      2.      1.      1.     0.0     0.0     0.0     0.0     0.0     0.0     0.0     0.0     0.0     0.0     0.0     0.0     0.0     0.0     0.0     0.0     0.0     0.0     0.0     0.0     0.0     0.0     0.0     0.0     0.0     0.0     0.0     0.0     0.0     0.0
 2022 128     8    0.00    0.00    0.00    0.00     0.2   0.000   0.000   0.000   0.001     0.0     0.0     0.0     0.0      38    0.00    0.04    0.00    0.14     0.0     0.0     0.0     0.0     0.0     0.0     0.0     0.0     0.0     0.0      5.      9.      5.      6.      4.      2.      1.      2.      1.      1.     0.0     0.0     0.0     0.0     0.0     0.0     0.0     0.0     0.0     0.0     0.0     0.0     0.0     0.0     0.0     0.0     0.0     0.0     0.0     0.0     0.0     0.0     0.0     0.0     0.0     0.0     0.0     0.0     0.0     0.0
 2022 129     9    0.00    0.00    0.00    0.00     0.2   0.000   0.000   0.000   0.002     0.0     0.0     0.0     0.0      62    0.00    0.06    0.03    0.28     0.0     0.0     0.0     0.0     0.0     0.0     0.0     0.0     0.0     0.0      9.     13.      8.     10.      6.      3.      2.      4.      3.      1.     0.0     0.0     0.0     0.0     0.0     0.0     0.0     0.0     0.0     0.0     0.0     0.0     0.0     0.0     0.0     0.0     0.0     0.0     0.0     0.0     0.0     0.0     0.0     0.0     0.0     0.0     0.0     0.0     0.0     0.0
 2022 130    10    0.00    0.00    0.00    0.00     0.3   0.000   0.000   0.000   0.002     0.0     0.0     0.0     0.3      95    0.00    0.10    0.27    0.34     0.1     0.1     0.0     0.0     0.0     0.0     0.0     0.0     0.0     0.0     10.     19.     12.     15.     10.      5.      4.      7.      5.      3.     0.0     0.0     0.0     0.0     0.0     0.0     0.0     0.0     0.0     0.0     0.1     0.1     0.0     0.0     0.0     0.0     0.0     0.0     0.0     0.0     0.0     0.0     0.0     0.0     0.1     0.0     0.0     0.1     0.0     0.0
 2022 131    11    0.00    0.00    0.00    0.00     0.5   0.000   0.000   0.001   0.003     0.0     0.0     0.0     0.5     127    0.00    0.13    0.54    0.44     0.1     0.2     0.2     0.0     0.0     0.0     0.0     0.0     0.0     0.0     13.     18.     12.     20.     15.      7.      6.     12.      8.      5.     0.0     0.0     0.0     0.0     0.0     0.0     0.0     0.0     0.0     0.0     0.1     0.2     0.2     0.0     0.0     0.0     0.0     0.0     0.0     0.0     0.0     0.0     0.0     0.0     0.1     0.0     0.0     0.1     0.1     0.0
 2022 132    12    0.00    0.00    0.00    0.00     0.6   0.000   0.001   0.002   0.003     0.0     0.0     0.0     0.9     177    0.00    0.18    0.87    0.51     0.2     0.3     0.2     0.2     0.0     0.0     0.0     0.0     0.0     0.0     17.     25.     16.     28.     20.     10.      9.     17.     12.      7.     0.0     0.0     0.0     0.0     0.0     0.0     0.0     0.0     0.0     0.0     0.2     0.3     0.2     0.2     0.0     0.0     0.0     0.0     0.0     0.0     0.0     0.0     0.0     0.0     0.0     0.0     0.1     0.1     0.1     0.1
 2022 133    13    0.00    0.00    0.00    0.00     0.9   0.000   0.001   0.003   0.004     0.0     0.0     0.0     1.4     218    0.00    0.22    1.39    0.56     0.2     0.4     0.3     0.4     0.2     0.0     0.0     0.0     0.0     0.0     20.     31.     20.     29.     25.     13.     12.     22.     17.     10.     0.0     0.0     0.0     0.0     0.0     0.0     0.0     0.0     0.0     0.0     0.2     0.4     0.3     0.4     0.2     0.0     0.0     0.0     0.0     0.0     0.0     0.0     0.0     0.0     0.0     0.0     0.0     0.1     0.1     0.1
 2022 134    14    0.00    0.00    0.00    0.01     1.1   0.000   0.001   0.005   0.004     0.0     0.0     0.0     2.1     240    0.00    0.24    2.06    0.55     0.2     0.4     0.3     0.5     0.3     0.2     0.1     0.0     0.0     0.0     22.     35.     22.     27.     28.     14.     13.     25.     19.     12.     0.0     0.0     0.0     0.0     0.0     0.0     0.0     0.0     0.0     0.0     0.2     0.4     0.3     0.5     0.3     0.2     0.1     0.0     0.0     0.0     0.0     0.0     0.0     0.0     0.0     0.0     0.0     0.1     0.1     0.1
 2022 135    15    0.00    0.00    0.00    0.01     1.4   0.000   0.001   0.008   0.005     0.0     0.1     0.0     2.7     253    0.01    0.25    2.71    0.51     0.3     0.5     0.4     0.6     0.4     0.3     0.2     0.0     0.0     0.0     23.     37.     24.     28.     26.     11.     14.     27.     21.     13.     0.0     0.0     0.0     0.0     0.0     0.0     0.0     0.0     0.0     0.0     0.3     0.5     0.4     0.6     0.4     0.3     0.2     0.0     0.0     0.0     0.0     0.0     0.0     0.0     0.0     0.0     0.0     0.1     0.1     0.1
 2022 136    16    0.00    0.00    0.00    0.01     1.6   0.000   0.002   0.011   0.005     0.0     0.1     0.0     3.5     268    0.01    0.27    3.50    0.41     0.3     0.5     0.4     0.7     0.6     0.3     0.3     0.2     0.0     0.0     26.     41.     27.     32.     24.     13.     11.     29.     23.     14.     0.0     0.0     0.0     0.0     0.0     0.0     0.0     0.0     0.0     0.0     0.3     0.5     0.4     0.7     0.6     0.3     0.3     0.2     0.0     0.0     0.0     0.0     0.0     0.0     0.0     0.0     0.0     0.0     0.1     0.1
 2022 137    17    0.00    0.00    0.00    0.02     1.9   0.000   0.002   0.016   0.005     0.0     0.1     0.0     4.2     271    0.02    0.27    4.16    0.30     0.3     0.6     0.5     0.8     0.7     0.4     0.4     0.4     0.2     0.0     25.     40.     27.     32.     24.     13.     12.     29.     23.     14.     0.0     0.0     0.0     0.0     0.0     0.0     0.0     0.0     0.0     0.0     0.3     0.6     0.5     0.8     0.7     0.4     0.4     0.4     0.2     0.0     0.0     0.0     0.0     0.0     0.0     0.0     0.0     0.0     0.0     0.0
 2022 138    18    0.00    0.00    0.00    0.02     2.2   0.000   0.002   0.021   0.006     0.0     0.1     0.0     5.0     281    0.02    0.28    5.01    0.23     0.4     0.6     0.5     0.9     0.7     0.4     0.4     0.6     0.3     0.1     26.     42.     28.     34.     26.     14.     13.     28.     24.     15.     0.0     0.0     0.0     0.0     0.0     0.0     0.0     0.0     0.0     0.0     0.4     0.6     0.5     0.9     0.7     0.4     0.4     0.6     0.3     0.1     0.0     0.0     0.0     0.0     0.0     0.0     0.0     0.0     0.0     0.0
 2022 139    19    0.00    0.00    0.00    0.03     2.5   0.000   0.002   0.026   0.006     0.0     0.1     0.0     6.0     310    0.03    0.31    5.95    0.18     0.4     0.7     0.6     1.0     0.8     0.4     0.4     0.8     0.5     0.2     30.     47.     31.     39.     29.     15.     14.     27.     26.     16.     0.0     0.0     0.0     0.0     0.0     0.0     0.0     0.0     0.0     0.0     0.4     0.7     0.6     1.0     0.8     0.4     0.4     0.8     0.5     0.2     0.0     0.0     0.0     0.0     0.0     0.0     0.0     0.0     0.0     0.0
 2022 140    20    0.00    0.00    0.00    0.03     2.8   0.000   0.003   0.034   0.006     0.0     0.1     0.0     7.3     336    0.04    0.34    7.27    0.15     0.5     0.8     0.7     1.2     0.9     0.5     0.5     1.0     0.7     0.4     31.     51.     34.     43.     32.     17.     16.     29.     28.     18.     0.0     0.1     0.0     0.0     0.0     0.0     0.0     0.0     0.0     0.0     0.5     0.8     0.7     1.2     0.9     0.5     0.5     1.0     0.7     0.4     0.0     0.0     0.0     0.0     0.0     0.0     0.0     0.0     0.0     0.0
 2022 141    21    0.00    0.00    0.00    0.04     3.1   0.000   0.003   0.042   0.006     0.0     0.1     0.0     8.2     304    0.04    0.30    8.16    0.11     0.5     0.9     0.7     1.2     1.0     0.5     0.5     1.1     0.8     0.5     25.     45.     31.     40.     30.     16.     15.     26.     24.     15.     0.0     0.0     0.0     0.0     0.0     0.0     0.0     0.0     0.0     0.0     0.5     0.9     0.7     1.2     1.0     0.5     0.5     1.1     0.8     0.5     0.0     0.0     0.0     0.0     0.0     0.0     0.0     0.0     0.0     0.0
 2022 142    22    0.00    0.00    0.00    0.05     3.4   0.000   0.003   0.050   0.006     0.0     0.1     0.0     8.4     265    0.05    0.27    8.36    0.09     0.4     0.8     0.7     1.2     1.0     0.5     0.5     1.2     1.0     0.6     23.     40.     27.     35.     27.     14.     13.     23.     19.     12.     0.0     0.0     0.0     0.0     0.0     0.0     0.0     0.0     0.0     0.0     0.4     0.8     0.7     1.2     1.0     0.5     0.5     1.1     1.0     0.6     0.0     0.0     0.0     0.0     0.0     0.0     0.0     0.0     0.0     0.0
 2022 143    23    0.00    0.00    0.00    0.06     3.6   0.000   0.004   0.058   0.006     0.0     0.2     0.0     8.2     219    0.05    0.22    8.11    0.07     0.3     0.6     0.6     1.1     0.9     0.5     0.5     1.1     1.0     0.7     19.     33.     22.     29.     22.     12.     11.     20.     15.      9.     0.0     0.0     0.0     0.0     0.0     0.0     0.0     0.0     0.0     0.0     0.3     0.6     0.6     1.1     0.9     0.5     0.5     1.1     1.0     0.7     0.0     0.0     0.0     0.0     0.0     0.0     0.0     0.0     0.0     0.0
 2022 144    24    0.00    0.00    0.00    0.07     3.8   0.000   0.004   0.066   0.006     0.0     0.1     0.0     8.1     180    0.05    0.18    8.08    0.05     0.2     0.5     0.5     1.0     0.8     0.6     0.5     1.0     1.0     0.7     14.     27.     19.     24.     19.     10.      9.     17.     13.      8.     0.0     0.0     0.0     0.0     0.0     0.0     0.0     0.0     0.0     0.0     0.2     0.5     0.5     1.0     0.8     0.6     0.5     1.0     1.0     0.7     0.0     0.0     0.0     0.0     0.0     0.0     0.0     0.0     0.0     0.0
 2022 145    25    0.00    0.00    0.00    0.07     3.9   0.000   0.004   0.073   0.006     0.0     0.1     0.0     6.7     151    0.04    0.15    6.69    0.04     0.2     0.4     0.4     0.8     0.8     0.5     0.5     1.0     0.9     0.7     12.     23.     16.     21.     16.      8.      8.     15.     11.      7.     0.0     0.0     0.0     0.0     0.0     0.0     0.0     0.0     0.0     0.0     0.2     0.4     0.4     0.8     0.8     0.5     0.5     1.0     0.9     0.7     0.0     0.0     0.0     0.0     0.0     0.0     0.0     0.0     0.0     0.0
 2022 146    26    0.00    0.00    0.00    0.08     4.1   0.000   0.004   0.080   0.006     0.0     0.2     0.0     6.8     159    0.04    0.16    6.71    0.05     0.1     0.4     0.4     0.8     0.8     0.5     0.5     1.0     1.0     0.7     15.     25.     17.     22.     17.      9.      8.     15.     11.      7.     0.0     0.0     0.0     0.0     0.0     0.0     0.0     0.0     0.0     0.0     0.1     0.4     0.4     0.8     0.8     0.5     0.5     1.0     0.9     0.7     0.0     0.0     0.0     0.0     0.0     0.0     0.0     0.0     0.0     0.0
 2022 147    27    0.00    0.00    0.00    0.09     4.3   0.000   0.004   0.087   0.006     0.0     0.2     0.0     7.2     176    0.04    0.18    7.16    0.05     0.2     0.4     0.4     0.8     0.8     0.5     0.5     1.1     1.0     0.8     18.     28.     19.     25.     18.      9.      9.     16.     12.      7.     0.0     0.0     0.0     0.0     0.0     0.0     0.0     0.0     0.0     0.0     0.2     0.4     0.4     0.8     0.8     0.5     0.5     1.1     1.0     0.8     0.0     0.0     0.0     0.0     0.0     0.0     0.0     0.0     0.0     0.0
 2022 148    28    0.00    0.00    0.00    0.10     4.5   0.000   0.004   0.095   0.006     0.0     0.2     0.0     8.0     208    0.05    0.21    7.91    0.06     0.2     0.4     0.4     0.9     0.9     0.5     0.5     1.3     1.1     0.9     21.     34.     23.     30.     22.     11.     10.     18.     14.      8.     0.0     0.0     0.0     0.0     0.0     0.0     0.0     0.0     0.0     0.0     0.2     0.4     0.4     0.9     0.9     0.5     0.5     1.2     1.1     0.8     0.0     0.0     0.0     0.0     0.0     0.0     0.0     0.0     0.0     0.0
 2022 149    29    0.00    0.00    0.00    0.10     4.7   0.001   0.005   0.104   0.006     0.0     0.2     0.0     8.8     245    0.06    0.25    8.79    0.07     0.3     0.5     0.5     1.0     1.0     0.6     0.6     1.4     1.2     0.9     25.     41.     28.     35.     26.     13.     12.     21.     17.     10.     0.0     0.0     0.0     0.0     0.0     0.0     0.0     0.0     0.0     0.0     0.3     0.5     0.5     1.0     1.0     0.6     0.6     1.4     1.2     0.9     0.0     0.0     0.0     0.0     0.0     0.0     0.0     0.0     0.0     0.0
 2022 150    30    0.00    0.00    0.00    0.12     5.0   0.001   0.005   0.115   0.007     0.0     0.2     0.0    11.6     295    0.07    0.30   11.56    0.08     0.4     0.6     0.6     1.1     1.1     0.6     0.6     1.5     1.3     1.0     30.     50.     34.     42.     31.     15.     14.     26.     20.     12.     0.0     0.1     0.0     0.0     0.0     0.0     0.0     0.0     0.0     0.0     0.4     0.6     0.6     1.1     1.1     0.6     0.6     1.5     1.3     1.0     0.0     0.0     0.0     0.0     0.0     0.0     0.0     0.0     0.0     0.0
 2022 151    31    0.00    0.00    0.00    0.13     5.3   0.001   0.005   0.127   0.007     0.0     0.2     0.0    12.2     307    0.08    0.31   12.15    0.09     0.4     0.7     0.6     1.2     1.1     0.6     0.7     1.6     1.4     1.1     29.     51.     35.     44.     32.     16.     15.     28.     21.     13.     0.0     0.1     0.0     0.1     0.0     0.0     0.0     0.0     0.0     0.0     0.4     0.7     0.6     1.2     1.1     0.6     0.7     1.6     1.4     1.1     0.0     0.0     0.0     0.0     0.0     0.0     0.0     0.0     0.0     0.0
 2022 152    32    0.00    0.00    0.00    0.14     5.6   0.001   0.006   0.140   0.007     0.0     0.2     0.0    12.6     314    0.09    0.31   12.54    0.09     0.4     0.8     0.7     1.3     1.1     0.6     0.7     1.6     1.5     1.1     29.     51.     35.     44.     33.     16.     15.     29.     22.     13.     0.0     0.1     0.0     0.1     0.0     0.0     0.0     0.0     0.0     0.0     0.4     0.8     0.7     1.3     1.1     0.6     0.7     1.6     1.5     1.1     0.0     0.0     0.0     0.0     0.0     0.0     0.0     0.0     0.0     0.0
 2022 153    33    0.00    0.00    0.00    0.15     6.0   0.001   0.006   0.152   0.007     0.0     0.3     0.0    12.5     304    0.09    0.30   12.45    0.09     0.4     0.8     0.7     1.3     1.1     0.6     0.7     1.6     1.5     1.1     29.     48.     33.     42.     32.     16.     15.     28.     22.     13.     0.0     0.1     0.0     0.0     0.0     0.0     0.0     0.0     0.0     0.0     0.4     0.8     0.7     1.3     1.1     0.6     0.7     1.6     1.4     1.1     0.0     0.0     0.0     0.0     0.0     0.0     0.0     0.0     0.0     0.0
 2022 154    34    0.00    0.00    0.00    0.17     6.2   0.001   0.006   0.165   0.007     0.0     0.3     0.0    12.4     287    0.09    0.29   12.30    0.09     0.4     0.8     0.7     1.3     1.1     0.6     0.6     1.5     1.4     1.1     27.     45.     31.     40.     30.     15.     14.     27.     21.     13.     0.0     0.0     0.0     0.0     0.0     0.0     0.0     0.0     0.0     0.0     0.4     0.8     0.7     1.3     1.1     0.6     0.6     1.5     1.4     1.1     0.0     0.0     0.0     0.0     0.0     0.0     0.0     0.0     0.0     0.0
 2022 155    35    0.00    0.00    0.00    0.18     6.5   0.001   0.007   0.177   0.007     0.0     0.3     0.0    12.3     274    0.09    0.27   12.23    0.08     0.4     0.7     0.7     1.3     1.1     0.6     0.6     1.5     1.4     1.1     25.     42.     29.     37.     28.     14.     13.     26.     20.     13.     0.0     0.0     0.0     0.0     0.0     0.0     0.0     0.0     0.0     0.0     0.4     0.7     0.7     1.3     1.1     0.6     0.6     1.5     1.4     1.1     0.0     0.0     0.0     0.0     0.0     0.0     0.0     0.0     0.0     0.0
 2022 156    36    0.00    0.00    0.00    0.19     6.8   0.001   0.007   0.190   0.007     0.0     0.3     0.0    13.1     302    0.10    0.30   13.04    0.09     0.4     0.8     0.7     1.4     1.2     0.7     0.7     1.6     1.5     1.1     29.     47.     32.     41.     31.     16.     15.     28.     22.     14.     0.0     0.1     0.0     0.1     0.0     0.0     0.0     0.0     0.0     0.0     0.4     0.8     0.7     1.4     1.2     0.7     0.7     1.6     1.5     1.1     0.0     0.0     0.0     0.0     0.0     0.0     0.0     0.0     0.0     0.0
 2022 157    37    0.00    0.00    0.00    0.21     7.1   0.001   0.007   0.204   0.007     0.0     0.3     0.0    14.2     330    0.11    0.33   14.13    0.10     0.5     0.8     0.8     1.5     1.3     0.7     0.8     1.8     1.6     1.2     30.     51.     35.     45.     34.     17.     16.     31.     25.     15.     0.0     0.1     0.0     0.1     0.0     0.0     0.0     0.0     0.0     0.0     0.5     0.8     0.8     1.5     1.3     0.7     0.7     1.7     1.6     1.2     0.0     0.0     0.0     0.0     0.0     0.0     0.0     0.0     0.0     0.0
 2022 158    38    0.00    0.00    0.00    0.22     7.5   0.001   0.008   0.219   0.007     0.0     0.4     0.0    15.4     375    0.12    0.38   15.23    0.12     0.5     0.9     0.8     1.6     1.4     0.8     0.8     1.9     1.8     1.3     36.     59.     40.     52.     38.     19.     18.     34.     27.     17.     0.0     0.1     0.0     0.1     0.0     0.0     0.0     0.1     0.0     0.0     0.5     0.9     0.8     1.6     1.4     0.8     0.8     1.9     1.7     1.3     0.0     0.0     0.0     0.0     0.0     0.0     0.0     0.0     0.0     0.0
 2022 159    39    0.00    0.01    0.00    0.24     7.9   0.002   0.008   0.235   0.007     0.0     0.3     0.0    16.2     380    0.13    0.38   16.09    0.11     0.6     1.0     0.9     1.7     1.5     1.0     0.9     1.9     1.8     1.4     32.     58.     40.     53.     40.     20.     19.     36.     29.     18.     0.0     0.1     0.0     0.1     0.1     0.0     0.0     0.1     0.0     0.0     0.6     1.0     0.9     1.7     1.5     1.0     0.9     1.8     1.8     1.4     0.0     0.0     0.0     0.0     0.0     0.0     0.0     0.0     0.0     0.0
 2022 160    40    0.00    0.01    0.00    0.25     8.3   0.002   0.008   0.252   0.008     0.0     0.4     0.0    16.5     411    0.14    0.41   16.40    0.13     0.5     1.0     0.9     1.7     1.5     0.9     0.9     2.0     1.9     1.4     39.     64.     44.     56.     42.     21.     20.     38.     30.     19.     0.0     0.1     0.0     0.1     0.1     0.0     0.0     0.1     0.0     0.0     0.4     1.0     0.9     1.7     1.5     0.9     0.9     2.0     1.9     1.4     0.0     0.0     0.0     0.0     0.0     0.0     0.0     0.0     0.0     0.0
 2022 161    41    0.00    0.01    0.00    0.27     8.7   0.002   0.009   0.269   0.008     0.0     0.4     0.0    17.5     408    0.15    0.41   17.36    0.13     0.6     1.1     1.0     1.9     1.6     0.9     1.0     2.1     1.9     1.5     36.     62.     43.     56.     42.     21.     20.     39.     32.     19.     0.0     0.1     0.0     0.1     0.1     0.0     0.0     0.1     0.1     0.0     0.6     1.1     1.0     1.8     1.6     0.9     1.0     2.1     1.9     1.5     0.0     0.0     0.0     0.0     0.0     0.0     0.0     0.0     0.0     0.0
 2022 162    42    0.00    0.01    0.00    0.29     9.1   0.002   0.009   0.287   0.008     0.0     0.5     0.0    18.1     423    0.17    0.42   17.96    0.14     0.6     1.1     1.0     1.9     1.7     1.0     1.0     2.2     2.0     1.5     39.     64.     44.     57.     43.     22.     20.     40.     32.     20.     0.0     0.1     0.1     0.1     0.1     0.0     0.0     0.1     0.1     0.0     0.6     1.1     1.0     1.9     1.7     1.0     1.0     2.2     2.0     1.5     0.0     0.0     0.0     0.0     0.0     0.0     0.0     0.0     0.0     0.0
 2022 163    43    0.00    0.01    0.00    0.31     9.6   0.002   0.010   0.306   0.008     0.0     0.5     0.0    19.4     456    0.18    0.46   19.17    0.15     0.6     1.2     1.1     2.1     1.8     1.0     1.1     2.4     2.1     1.6     42.     69.     48.     62.     46.     23.     22.     43.     35.     22.     0.0     0.1     0.1     0.1     0.1     0.0     0.0     0.1     0.1     0.0     0.6     1.2     1.1     2.0     1.8     1.0     1.0     2.4     2.1     1.6     0.0     0.0     0.0     0.0     0.0     0.0     0.0     0.0     0.0     0.0
 2022 164    44    0.00    0.01    0.00    0.33    10.1   0.002   0.010   0.327   0.008     0.0     0.6     0.0    21.4     520    0.21    0.52   21.16    0.17     0.8     1.4     1.3     2.2     2.0     1.1     1.2     2.6     2.3     1.8     48.     79.     55.     71.     52.     26.     25.     49.     41.     24.     0.1     0.1     0.1     0.1     0.1     0.0     0.0     0.1     0.1     0.0     0.8     1.4     1.3     2.2     2.0     1.1     1.2     2.6     2.3     1.8     0.0     0.0     0.0     0.0     0.0     0.0     0.0     0.0     0.0     0.0
 2022 165    45    0.00    0.01    0.00    0.35    10.8   0.003   0.011   0.351   0.008     0.1     0.7     0.0    24.1     634    0.24    0.63   23.81    0.22     0.9     1.7     1.5     2.4     2.3     1.3     1.3     3.0     2.6     2.0     62.     99.     67.     86.     63.     31.     30.     60.     49.     29.     0.1     0.1     0.1     0.1     0.1     0.0     0.0     0.1     0.1     0.1     0.9     1.7     1.5     2.4     2.2     1.3     1.3     2.9     2.5     2.0     0.0     0.0     0.0     0.0     0.0     0.0     0.0     0.0     0.0     0.0
 2022 166    46    0.00    0.01    0.00    0.38    11.4   0.003   0.011   0.377   0.009     0.0     0.6     0.0    25.9     645    0.27    0.65   25.58    0.22     1.1     2.1     1.7     2.6     2.4     1.4     1.5     3.0     2.7     2.2     55.     95.     66.     86.     65.     32.     31.     66.     53.     31.     0.1     0.1     0.1     0.1     0.1     0.0     0.0     0.1     0.1     0.1     1.1     2.0     1.7     2.5     2.3     1.4     1.5     3.0     2.6     2.1     0.0     0.0     0.0     0.0     0.0     0.0     0.0     0.0     0.0     0.0
 2022 167    47    0.00    0.01    0.00    0.41    12.1   0.003   0.012   0.404   0.009     0.0     0.7     0.0    27.0     651    0.30    0.65   26.68    0.23     1.1     2.2     1.7     2.6     2.4     1.5     1.5     3.3     2.8     2.3     55.     95.     66.     86.     64.     33.     31.     65.     55.     32.     0.1     0.1     0.1     0.1     0.1     0.0     0.0     0.1     0.1     0.1     1.1     2.2     1.7     2.6     2.4     1.5     1.5     3.3     2.8     2.3     0.0     0.0     0.0     0.0     0.0     0.0     0.0     0.0     0.0     0.0
 2022 168    48    0.00    0.01    0.00    0.43    12.7   0.003   0.013   0.430   0.009     0.1     0.7     0.0    26.9     614    0.31    0.61   26.61    0.22     1.1     2.1     1.6     2.5     2.3     1.5     1.6     3.4     2.9     2.4     51.     87.     61.     81.     60.     31.     30.     61.     52.     31.     0.1     0.1     0.1     0.1     0.1     0.0     0.0     0.1     0.1     0.1     1.0     2.1     1.6     2.5     2.2     1.5     1.5     3.4     2.8     2.3     0.0     0.0     0.0     0.0     0.0     0.0     0.0     0.0     0.0     0.0
 2022 169    49    0.00    0.01    0.00    0.46    13.3   0.004   0.013   0.458   0.009     0.1     0.9     0.0    27.8     647    0.33    0.65   27.45    0.24     1.0     2.1     1.6     2.5     2.2     1.5     1.6     3.6     3.1     2.5     56.     93.     64.     84.     63.     33.     31.     63.     54.     33.     0.1     0.1     0.1     0.1     0.1     0.0     0.1     0.1     0.1     0.1     1.0     2.1     1.6     2.5     2.2     1.5     1.6     3.6     3.0     2.5     0.0     0.0     0.0     0.0     0.0     0.0     0.0     0.0     0.0     0.0