*Soil Inorganic Nitrogen daily output file

*DSSAT Cropping System Model Ver. 4.8.2.000 -release  JAN 24, 2025 00:02:17

*RUN   1        : silt_loam_13in_irr        MZCER048 UNLI2201    1
 MODEL          : MZCER048 - Maize
 EXPERIMENT     : UNLI2201 MZ IRRIGATED MAIZE PRODUCTION
 DATA PATH      :
 TREATMENT  1   : silt_loam_13in_irr        MZCER048
  
!                                                                                                                                      NO3 (ppm) at soil dep. (cm):                                                    NH4 (ppm) at soil dep. (cm):                                                    Total Inorganic N @dep(ppm):
!                                                                                                                                       0-5    5-15   15-23   23-38   38-53   53-61   61-69   69-84   84-99  99-160     0-5    5-15   15-23   23-38   38-53   53-61   61-69   69-84   84-99  99-160     0-5    5-15   15-23   23-38   38-53   53-61   61-69   69-84   84-99  99-160
@YEAR DOY   DAS  NAPC  NI#M    NIAD    NITD    NHTD   NURTD    NMNC    NITC    NDNC    NIMC    AMLC   NNMNC    NUCM    NLCC    TDNC    NI1D    NI2D    NI3D    NI4D    NI5D    NI6D    NI7D    NI8D    NI9D    NI10    NH1D    NH2D    NH3D    NH4D    NH5D    NH6D    NH7D    NH8D    NH9D    NH10    NT1D    NT2D    NT3D    NT4D    NT5D    NT6D    NT7D    NT8D    NT9D    NT10    
 2022 120     0     0     0     0.0     0.0     0.0     0.0    0.00    0.00    0.00    0.00    0.00    0.00    0.00    0.00    0.00    0.00     0.0     0.0    0.00    0.00    0.00    0.00    0.00    0.00    0.00    0.00    0.00    0.00    0.00    0.00    0.00    0.00    0.00    0.00    0.00    0.00    0.00    0.00    0.00    0.00    0.00    0.00    0.00    0.00    0.00
 2022 121     1     0     0     0.1     0.0     0.1     0.0    0.12    0.00    0.00    0.00    0.00    0.12    0.00    0.00    0.00    0.00     0.0     0.0    0.00    0.00    0.00    0.00    0.00    0.00    0.00    0.02    0.02    0.01    0.01    0.01    0.01    0.01    0.01    0.00    0.00    0.02    0.02    0.01    0.01    0.01    0.01    0.01    0.01    0.00    0.00
 2022 122     2     0     0     0.2     0.0     0.2     0.0    0.23    0.01    0.00    0.00    0.00    0.23    0.00    0.00    0.00    0.00     0.0     0.0    0.00    0.00    0.00    0.00    0.00    0.00    0.00    0.04    0.03    0.02    0.02    0.01    0.01    0.01    0.01    0.01    0.00    0.05    0.03    0.03    0.02    0.01    0.01    0.01    0.01    0.01    0.00
 2022 123     3     0     0     0.3     0.0     0.3     0.0    0.31    0.04    0.00    0.00    0.00    0.31    0.00    0.00    0.00    0.01     0.0     0.0    0.00    0.00    0.00    0.00    0.00    0.00    0.00    0.06    0.04    0.03    0.02    0.02    0.01    0.01    0.01    0.01    0.00    0.06    0.04    0.03    0.02    0.02    0.02    0.01    0.01    0.01    0.01
 2022 124     4     0     0     0.4     0.1     0.3     0.0    0.36    0.06    0.00    0.00    0.00    0.36    0.00    0.00    0.00    0.01     0.0     0.0    0.00    0.00    0.00    0.00    0.00    0.00    0.00    0.07    0.05    0.03    0.02    0.02    0.01    0.01    0.01    0.01    0.00    0.08    0.05    0.04    0.03    0.02    0.02    0.02    0.02    0.01    0.01
 2022 125     5     0     0     0.4     0.1     0.3     0.0    0.39    0.09    0.00    0.00    0.00    0.39    0.00    0.00    0.00    0.02     0.0     0.0    0.01    0.01    0.01    0.00    0.00    0.00    0.00    0.07    0.05    0.04    0.02    0.02    0.01    0.01    0.01    0.01    0.00    0.08    0.06    0.05    0.03    0.02    0.02    0.02    0.02    0.01    0.01
 2022 126     6     0     0     0.4     0.1     0.3     0.0    0.41    0.12    0.00    0.00    0.00    0.41    0.00    0.00    0.00    0.02     0.0     0.0    0.01    0.01    0.01    0.01    0.01    0.00    0.00    0.07    0.05    0.04    0.02    0.02    0.01    0.01    0.01    0.01    0.00    0.09    0.06    0.05    0.03    0.02    0.02    0.02    0.02    0.01    0.01
 2022 127     7     0     0     0.5     0.1     0.3     0.0    0.46    0.15    0.00    0.00    0.00    0.46    0.00    0.00    0.00    0.03     0.0     0.0    0.01    0.01    0.01    0.01    0.01    0.00    0.00    0.08    0.05    0.04    0.03    0.02    0.01    0.01    0.01    0.01    0.00    0.11    0.07    0.06    0.04    0.03    0.02    0.02    0.02    0.01    0.01
 2022 128     8     0     0     0.6     0.2     0.4     0.0    0.60    0.19    0.00    0.00    0.00    0.60    0.00    0.00    0.00    0.04     0.0     0.0    0.01    0.01    0.01    0.01    0.01    0.01    0.00    0.10    0.06    0.05    0.03    0.02    0.02    0.02    0.02    0.01    0.01    0.13    0.09    0.07    0.05    0.03    0.03    0.02    0.02    0.02    0.01
 2022 129     9     0     0     0.8     0.2     0.6     0.0    0.82    0.25    0.00    0.00    0.00    0.82    0.00    0.00    0.00    0.04     0.0     0.0    0.02    0.01    0.01    0.01    0.01    0.01    0.00    0.12    0.08    0.06    0.04    0.03    0.03    0.02    0.02    0.02    0.01    0.16    0.11    0.10    0.07    0.04    0.04    0.04    0.04    0.03    0.01
 2022 130    10     0     0     1.1     0.3     0.8     0.0    1.11    0.34    0.00    0.00    0.00    1.11    0.00    0.00    0.00    0.04     0.0     0.0    0.03    0.02    0.02    0.02    0.01    0.01    0.01    0.15    0.10    0.08    0.06    0.04    0.04    0.03    0.04    0.03    0.02    0.19    0.14    0.12    0.09    0.06    0.06    0.05    0.05    0.04    0.02
 2022 131    11     0     0     1.4     0.5     1.0     0.0    1.45    0.47    0.00    0.00    0.00    1.45    0.00    0.00    0.00    0.05     0.0     0.0    0.05    0.03    0.03    0.02    0.02    0.01    0.01    0.17    0.12    0.10    0.07    0.05    0.05    0.04    0.05    0.04    0.02    0.23    0.17    0.15    0.12    0.08    0.08    0.07    0.07    0.05    0.03
 2022 132    12     0     0     1.8     0.6     1.2     0.0    1.83    0.65    0.00    0.00    0.00    1.83    0.00    0.00    0.00    0.07     0.1     0.1    0.06    0.05    0.05    0.04    0.03    0.02    0.01    0.20    0.15    0.12    0.08    0.06    0.06    0.05    0.06    0.05    0.03    0.27    0.20    0.18    0.14    0.11    0.11    0.09    0.09    0.07    0.04
 2022 133    13     0     0     2.2     0.9     1.4     0.0    2.24    0.87    0.00    0.00    0.00    2.24    0.00    0.00    0.00    0.08     0.1     0.1    0.08    0.07    0.07    0.06    0.05    0.03    0.02    0.23    0.17    0.14    0.09    0.07    0.06    0.06    0.07    0.06    0.04    0.30    0.23    0.21    0.17    0.13    0.14    0.12    0.12    0.09    0.05
 2022 134    14     0     0     2.6     1.1     1.5     0.0    2.63    1.11    0.01    0.00    0.00    2.63    0.00    0.00    0.00    0.09     0.1     0.1    0.09    0.08    0.10    0.08    0.07    0.05    0.03    0.25    0.18    0.15    0.11    0.07    0.07    0.07    0.08    0.06    0.04    0.34    0.26    0.23    0.20    0.16    0.17    0.15    0.15    0.11    0.07
 2022 135    15     0     0     3.0     1.3     1.7     0.0    3.02    1.36    0.01    0.00    0.00    3.02    0.00    0.00    0.00    0.10     0.1     0.1    0.10    0.10    0.11    0.11    0.10    0.07    0.04    0.26    0.20    0.17    0.12    0.08    0.08    0.07    0.08    0.07    0.04    0.36    0.28    0.26    0.22    0.18    0.19    0.18    0.18    0.13    0.08
 2022 136    16     0     0     3.4     1.6     1.8     0.0    3.40    1.63    0.01    0.00    0.00    3.40    0.00    0.00    0.00    0.11     0.1     0.1    0.11    0.11    0.12    0.12    0.12    0.09    0.06    0.28    0.21    0.18    0.13    0.09    0.09    0.08    0.08    0.07    0.05    0.39    0.31    0.28    0.24    0.20    0.20    0.20    0.21    0.16    0.10
 2022 137    17     0     0     3.7     1.9     1.9     0.0    3.76    1.90    0.02    0.00    0.00    3.76    0.00    0.00    0.00    0.12     0.1     0.1    0.12    0.12    0.13    0.13    0.14    0.12    0.08    0.29    0.22    0.19    0.14    0.09    0.09    0.09    0.09    0.07    0.05    0.41    0.32    0.30    0.26    0.21    0.22    0.22    0.23    0.19    0.13
 2022 138    18     0     0     4.1     2.1     1.9     0.0    4.12    2.18    0.02    0.00    0.00    4.12    0.00    0.00    0.00    0.13     0.1     0.1    0.14    0.13    0.14    0.14    0.16    0.14    0.10    0.30    0.23    0.19    0.14    0.10    0.09    0.09    0.09    0.08    0.05    0.42    0.34    0.32    0.28    0.23    0.23    0.23    0.25    0.21    0.15
 2022 139    19     0     0     4.5     2.4     2.0     0.0    4.51    2.49    0.03    0.00    0.00    4.51    0.00    0.01    0.00    0.14     0.1     0.1    0.15    0.14    0.15    0.15    0.17    0.16    0.12    0.30    0.23    0.20    0.15    0.10    0.10    0.09    0.10    0.08    0.05    0.44    0.36    0.34    0.30    0.25    0.25    0.25    0.27    0.23    0.17
 2022 140    20     0     0     4.9     2.8     2.1     0.0    4.93    2.82    0.03    0.00    0.00    4.93    0.00    0.02    0.00    0.15     0.1     0.1    0.16    0.16    0.17    0.17    0.19    0.18    0.14    0.31    0.24    0.21    0.16    0.11    0.10    0.10    0.10    0.08    0.05    0.46    0.38    0.35    0.32    0.27    0.27    0.27    0.29    0.26    0.20
 2022 141    21     0     0     5.2     3.0     2.2     0.0    5.30    3.13    0.04    0.00    0.00    5.30    0.00    0.04    0.00    0.12     0.1     0.1    0.17    0.17    0.18    0.18    0.21    0.20    0.17    0.32    0.25    0.22    0.16    0.11    0.11    0.10    0.11    0.08    0.05    0.44    0.38    0.37    0.34    0.28    0.29    0.28    0.31    0.28    0.22
 2022 142    22     0     0     5.5     3.3     2.2     0.0    5.60    3.39    0.05    0.00    0.00    5.60    0.00    0.08    0.00    0.11     0.1     0.1    0.18    0.18    0.19    0.19    0.22    0.21    0.18    0.33    0.25    0.22    0.17    0.12    0.11    0.10    0.11    0.09    0.06    0.44    0.38    0.37    0.35    0.29    0.30    0.29    0.33    0.30    0.24
 2022 143    23     0     0     5.6     3.4     2.2     0.0    5.80    3.61    0.06    0.00    0.00    5.80    0.00    0.13    0.00    0.09     0.1     0.1    0.17    0.17    0.23    0.20    0.20    0.22    0.19    0.33    0.25    0.22    0.17    0.11    0.11    0.10    0.11    0.09    0.06    0.42    0.36    0.35    0.34    0.29    0.33    0.30    0.32    0.30    0.25
 2022 144    24     0     0     5.6     3.5     2.1     0.0    5.94    3.79    0.07    0.00    0.00    5.94    0.00    0.23    0.00    0.07     0.1     0.1    0.16    0.17    0.21    0.21    0.22    0.22    0.20    0.33    0.25    0.22    0.16    0.11    0.10    0.10    0.11    0.08    0.05    0.40    0.35    0.33    0.33    0.29    0.31    0.31    0.33    0.30    0.25
 2022 145    25     0     0     5.6     3.5     2.1     0.0    6.00    3.94    0.07    0.00    0.00    6.00    0.00    0.35    0.00    0.06     0.1     0.1    0.16    0.17    0.20    0.21    0.23    0.23    0.20    0.32    0.24    0.21    0.16    0.11    0.10    0.09    0.10    0.08    0.05    0.38    0.33    0.32    0.32    0.28    0.30    0.30    0.33    0.30    0.25
 2022 146    26     0     0     5.5     3.6     2.0     0.0    6.10    4.10    0.08    0.00    0.00    6.10    0.00    0.46    0.00    0.07     0.1     0.1    0.15    0.17    0.19    0.21    0.24    0.23    0.21    0.32    0.24    0.21    0.15    0.10    0.09    0.09    0.10    0.07    0.05    0.39    0.32    0.31    0.31    0.27    0.29    0.29    0.33    0.30    0.26
 2022 147    27     0     0     5.6     3.6     2.0     0.0    6.25    4.28    0.09    0.00    0.00    6.25    0.00    0.57    0.00    0.09     0.1     0.1    0.15    0.16    0.19    0.20    0.24    0.23    0.21    0.31    0.24    0.20    0.15    0.10    0.09    0.09    0.10    0.07    0.05    0.40    0.32    0.31    0.30    0.27    0.28    0.29    0.34    0.31    0.26
 2022 148    28     0     0     5.7     3.7     2.0     0.0    6.48    4.49    0.10    0.00    0.00    6.48    0.00    0.69    0.00    0.10     0.1     0.1    0.15    0.16    0.19    0.20    0.24    0.24    0.22    0.31    0.24    0.21    0.16    0.10    0.09    0.09    0.10    0.08    0.05    0.42    0.33    0.32    0.30    0.27    0.28    0.29    0.34    0.31    0.26
 2022 149    29     0     0     5.9     3.8     2.1     0.0    6.79    4.73    0.10    0.00    0.00    6.79    0.00    0.80    0.00    0.11     0.1     0.1    0.15    0.17    0.19    0.21    0.25    0.24    0.22    0.32    0.24    0.21    0.16    0.11    0.09    0.09    0.10    0.08    0.05    0.43    0.35    0.33    0.31    0.27    0.28    0.30    0.35    0.32    0.27
 2022 150    30     0     0     6.1     3.9     2.2     0.0    7.18    5.03    0.12    0.00    0.00    7.18    0.00    0.97    0.00    0.12     0.1     0.1    0.16    0.17    0.19    0.21    0.25    0.25    0.23    0.32    0.25    0.22    0.16    0.11    0.10    0.10    0.11    0.08    0.06    0.45    0.36    0.34    0.32    0.28    0.29    0.30    0.36    0.34    0.28
 2022 151    31     0     0     6.3     4.1     2.2     0.0    7.58    5.33    0.13    0.00    0.00    7.58    0.00    1.12    0.00    0.12     0.1     0.1    0.17    0.17    0.20    0.21    0.26    0.26    0.23    0.33    0.25    0.22    0.17    0.12    0.10    0.10    0.11    0.09    0.06    0.46    0.38    0.36    0.34    0.29    0.30    0.31    0.37    0.35    0.29
 2022 152    32     0     0     6.5     4.2     2.3     0.0    7.97    5.65    0.14    0.00    0.00    7.97    0.00    1.28    0.00    0.12     0.1     0.1    0.18    0.18    0.20    0.21    0.26    0.27    0.24    0.34    0.26    0.23    0.17    0.12    0.11    0.10    0.12    0.09    0.06    0.46    0.39    0.37    0.35    0.30    0.31    0.32    0.38    0.36    0.30
 2022 153    33     0     0     6.7     4.4     2.4     0.0    8.32    5.95    0.15    0.00    0.00    8.32    0.00    1.43    0.00    0.13     0.1     0.2    0.19    0.19    0.21    0.22    0.27    0.27    0.25    0.34    0.26    0.23    0.18    0.12    0.11    0.10    0.12    0.10    0.07    0.47    0.40    0.38    0.36    0.31    0.32    0.33    0.39    0.37    0.31
 2022 154    34     0     0     6.9     4.5     2.4     0.0    8.63    6.24    0.17    0.00    0.00    8.63    0.00    1.58    0.00    0.14     0.1     0.2    0.19    0.20    0.22    0.23    0.28    0.28    0.25    0.34    0.26    0.23    0.18    0.12    0.11    0.11    0.12    0.10    0.07    0.48    0.40    0.39    0.37    0.32    0.33    0.33    0.40    0.38    0.32
 2022 155    35     0     0     7.0     4.6     2.4     0.0    8.92    6.51    0.18    0.00    0.00    8.92    0.00    1.74    0.00    0.14     0.1     0.2    0.20    0.20    0.22    0.23    0.28    0.28    0.26    0.34    0.26    0.23    0.18    0.12    0.11    0.11    0.12    0.10    0.07    0.48    0.40    0.39    0.38    0.32    0.33    0.34    0.41    0.38    0.33
 2022 156    36     0     0     7.1     4.7     2.4     0.0    9.24    6.82    0.19    0.00    0.00    9.24    0.00    1.89    0.00    0.15     0.1     0.2    0.20    0.21    0.23    0.24    0.29    0.29    0.26    0.34    0.27    0.23    0.18    0.12    0.11    0.11    0.13    0.10    0.07    0.49    0.40    0.39    0.38    0.33    0.34    0.35    0.42    0.39    0.33
 2022 157    37     0     0     7.3     4.9     2.5     0.0    9.61    7.15    0.21    0.00    0.00    9.61    0.00    2.07    0.00    0.15     0.1     0.2    0.21    0.22    0.24    0.25    0.30    0.30    0.27    0.35    0.27    0.23    0.18    0.12    0.11    0.11    0.13    0.10    0.07    0.49    0.41    0.40    0.39    0.34    0.35    0.36    0.43    0.40    0.34
 2022 158    38     0     0     7.5     5.0     2.5     0.0   10.03    7.52    0.22    0.00    0.00   10.03    0.00    2.33    0.00    0.15     0.1     0.2    0.21    0.22    0.28    0.26    0.28    0.31    0.28    0.34    0.27    0.24    0.18    0.13    0.11    0.11    0.13    0.11    0.07    0.50    0.41    0.40    0.39    0.34    0.39    0.37    0.42    0.41    0.35
 2022 159    39     0     0     7.7     5.1     2.6     0.0   10.47    7.90    0.24    0.00    0.00   10.47    0.00    2.54    0.00    0.14     0.1     0.2    0.22    0.22    0.27    0.27    0.31    0.31    0.29    0.35    0.27    0.24    0.19    0.13    0.12    0.11    0.14    0.11    0.08    0.49    0.42    0.41    0.40    0.35    0.38    0.39    0.44    0.42    0.36
 2022 160    40     0     0     7.9     5.3     2.6     0.0   10.91    8.31    0.25    0.00    0.00   10.91    0.00    2.72    0.00    0.17     0.2     0.2    0.23    0.24    0.27    0.28    0.32    0.32    0.29    0.35    0.27    0.24    0.19    0.13    0.12    0.11    0.14    0.11    0.08    0.52    0.43    0.42    0.42    0.37    0.39    0.40    0.46    0.44    0.37
 2022 161    41     0     0     8.2     5.5     2.6     0.0   11.36    8.72    0.27    0.00    0.00   11.36    0.00    2.91    0.00    0.17     0.2     0.2    0.24    0.25    0.28    0.29    0.34    0.34    0.30    0.35    0.27    0.24    0.19    0.13    0.12    0.12    0.14    0.12    0.08    0.52    0.44    0.43    0.43    0.38    0.40    0.41    0.48    0.45    0.39
 2022 162    42     0     0     8.4     5.7     2.7     0.0   11.80    9.14    0.29    0.00    0.00   11.80    0.00    3.10    0.00    0.19     0.2     0.2    0.25    0.26    0.29    0.30    0.36    0.35    0.31    0.35    0.27    0.24    0.19    0.13    0.12    0.12    0.14    0.12    0.08    0.53    0.45    0.45    0.44    0.39    0.41    0.42    0.50    0.47    0.40
 2022 163    43     0     0     8.7     6.0     2.7     0.0   12.28    9.60    0.31    0.00    0.00   12.28    0.01    3.29    0.00    0.21     0.2     0.2    0.27    0.27    0.30    0.31    0.37    0.36    0.33    0.34    0.27    0.24    0.19    0.13    0.12    0.12    0.14    0.12    0.08    0.55    0.46    0.46    0.46    0.40    0.42    0.43    0.51    0.48    0.41
 2022 164    44     0     0     8.9     6.2     2.7     0.0   12.81   10.12    0.33    0.00    0.00   12.81    0.05    3.48    0.00    0.23     0.2     0.2    0.27    0.28    0.31    0.33    0.39    0.38    0.34    0.34    0.27    0.24    0.19    0.13    0.12    0.12    0.15    0.12    0.09    0.57    0.47    0.47    0.46    0.41    0.43    0.45    0.53    0.50    0.43
 2022 165    45     0     0     9.3     6.6     2.7     0.0   13.43   10.75    0.35    0.00    0.00   13.43    0.12    3.67    0.00    0.29     0.2     0.3    0.29    0.29    0.33    0.35    0.40    0.39    0.36    0.31    0.26    0.23    0.19    0.13    0.12    0.12    0.15    0.12    0.09    0.61    0.49    0.49    0.48    0.42    0.45    0.47    0.55    0.52    0.45
 2022 166    46     0     0     9.5     6.9     2.7     0.0   14.07   11.40    0.38    0.00    0.00   14.07    0.27    3.87    0.00    0.27     0.3     0.3    0.29    0.30    0.34    0.36    0.43    0.42    0.38    0.31    0.25    0.23    0.18    0.13    0.12    0.12    0.15    0.12    0.09    0.58    0.50    0.50    0.48    0.43    0.46    0.49    0.58    0.54    0.47
 2022 167    47     0     0     9.8     7.1     2.7     0.0   14.71   12.05    0.41    0.00    0.00   14.71    0.44    4.08    0.00    0.28     0.3     0.3    0.29    0.30    0.35    0.38    0.45    0.44    0.40    0.30    0.25    0.22    0.18    0.13    0.12    0.12    0.15    0.12    0.09    0.58    0.50    0.50    0.48    0.42    0.47    0.50    0.60    0.56    0.49
 2022 168    48     0     0     9.9     7.3     2.7     0.0   15.33   12.66    0.43    0.00    0.00   15.33    0.64    4.29    0.00    0.27     0.3     0.3    0.29    0.29    0.35    0.38    0.47    0.46    0.42    0.30    0.25    0.22    0.18    0.13    0.12    0.12    0.15    0.12    0.09    0.57    0.50    0.50    0.47    0.42    0.47    0.51    0.62    0.58    0.51
 2022 169    49     0     0    10.1     7.5     2.7     0.0   15.97   13.31    0.46    0.00    0.00   15.97    0.83    4.52    0.00    0.30     0.3     0.3    0.29    0.28    0.35    0.39    0.48    0.48    0.44    0.29    0.24    0.22    0.18    0.13    0.12    0.12    0.15    0.12    0.10    0.59    0.50    0.50    0.47    0.41    0.47    0.51    0.63    0.60    0.53
 2022 170    50     0     0    10.3     7.6     2.6     0.0   16.60   13.96    0.49    0.00    0.00   16.60    1.05    4.75    0.00    0.29     0.3     0.3    0.29    0.28    0.35    0.39    0.49    0.49    0.46    0.29    0.24    0.22    0.18    0.13    0.12    0.12    0.15    0.12    0.10    0.58    0.49    0.49    0.47    0.41    0.47    0.52    0.64    0.61    0.55
 2022 171    51     0     0    10.5     7.9     2.6     0.0   17.28   14.65    0.52    0.00    0.00   17.28    1.27    4.99    0.00    0.29     0.3     0.3    0.29    0.28    0.34    0.40    0.50    0.51    0.48    0.29    0.24    0.22    0.18    0.13    0.12    0.12    0.14    0.12    0.10    0.57    0.50    0.50    0.47    0.41    0.46    0.52    0.65    0.63    0.58
 2022 172    52     0     0    10.7     8.1     2.6     0.0   18.00   15.40    0.55    0.00    0.00   18.00    1.50    5.23    0.00    0.28     0.3     0.3    0.30    0.28    0.34    0.40    0.52    0.53    0.50    0.28    0.23    0.21    0.17    0.12    0.12    0.12    0.14    0.12    0.10    0.56    0.50    0.49    0.47    0.41    0.46    0.52    0.66    0.65    0.60
 2022 173    53     0     0    10.8     8.2     2.6     0.0   18.71   16.10    0.58    0.00    0.00   18.71    1.76    5.49    0.00    0.24     0.3     0.3    0.29    0.28    0.33    0.38    0.53    0.55    0.52    0.29    0.23    0.21    0.17    0.12    0.12    0.12    0.14    0.12    0.10    0.53    0.49    0.49    0.47    0.40    0.45    0.51    0.67    0.67    0.62
 2022 174    54     0     0    11.0     8.4     2.6     0.0   19.36   16.74    0.62    0.00    0.00   19.36    1.97    5.77    0.00    0.25     0.2     0.3    0.29    0.28    0.32    0.37    0.52    0.56    0.53    0.29    0.23    0.21    0.17    0.12    0.12    0.12    0.15    0.12    0.10    0.54    0.48    0.48    0.46    0.40    0.44    0.50    0.67    0.68    0.63
 2022 175    55     0     0    11.1     8.5     2.6     0.0   20.00   17.35    0.65    0.00    0.00   20.00    2.16    6.06    0.00    0.27     0.2     0.3    0.29    0.28    0.32    0.37    0.51    0.56    0.54    0.29    0.23    0.21    0.17    0.13    0.12    0.12    0.15    0.12    0.10    0.56    0.48    0.48    0.46    0.40    0.43    0.49    0.66    0.68    0.64
 2022 176    56     0     0    11.1     8.5     2.7     0.0   20.59   17.93    0.68    0.00    0.00   20.59    2.37    6.37    0.00    0.24     0.2     0.3    0.29    0.27    0.31    0.35    0.51    0.56    0.55    0.30    0.24    0.21    0.18    0.13    0.12    0.12    0.15    0.12    0.10    0.54    0.48    0.48    0.46    0.40    0.42    0.47    0.66    0.68    0.65
 2022 177    57     0     0    11.1     8.5     2.7     0.0   21.13   18.44    0.71    0.00    0.00   21.13    2.56    6.69    0.00    0.22     0.2     0.3    0.28    0.27    0.30    0.33    0.49    0.55    0.55    0.30    0.24    0.22    0.18    0.13    0.12    0.12    0.15    0.12    0.10    0.53    0.47    0.48    0.46    0.40    0.41    0.45    0.64    0.67    0.65
 2022 178    58     0     0    11.1     8.4     2.7     0.0   21.65   18.94    0.74    0.00    0.00   21.65    2.73    7.04    0.00    0.20     0.2     0.3    0.28    0.27    0.29    0.31    0.47    0.54    0.55    0.31    0.25    0.22    0.18    0.13    0.12    0.12    0.15    0.13    0.10    0.51    0.47    0.47    0.46    0.40    0.40    0.43    0.62    0.67    0.64
 2022 179    59     0     0    11.1     8.4     2.7     0.0   22.18   19.45    0.77    0.00    0.00   22.18    2.89    7.39    0.00    0.22     0.2     0.3    0.28    0.27    0.28    0.30    0.45    0.53    0.54    0.31    0.25    0.22    0.18    0.13    0.12    0.12    0.15    0.13    0.10    0.53    0.46    0.47    0.46    0.40    0.40    0.42    0.61    0.66    0.64
 2022 180    60     0     0    11.0     8.3     2.7     0.0   22.69   19.95    0.79    0.00    0.00   22.69    3.06    7.75    0.00    0.22     0.2     0.3    0.28    0.27    0.28    0.30    0.44    0.51    0.53    0.32    0.25    0.22    0.18    0.13    0.12    0.12    0.15    0.13    0.10    0.53    0.46    0.47    0.46    0.40    0.40    0.42    0.59    0.64    0.63
 2022 181    61     0     0    11.0     8.3     2.7     0.0   23.22   20.48    0.82    0.00    0.00   23.22    3.23    8.11    0.00    0.23     0.2     0.3    0.28    0.27    0.28    0.29    0.42    0.50    0.52    0.32    0.25    0.22    0.18    0.13    0.12    0.12    0.15    0.13    0.10    0.55    0.47    0.48    0.46    0.40    0.40    0.41    0.58    0.63    0.62
 2022 182    62     0     0    11.0     8.3     2.7     0.0   23.80   21.06    0.85    0.00    0.00   23.80    3.42    8.48    0.00    0.22     0.2     0.3    0.28    0.27    0.28    0.29    0.42    0.49    0.52    0.32    0.25    0.22    0.18    0.13    0.12    0.12    0.15    0.13    0.10    0.54    0.47    0.48    0.46    0.40    0.40    0.41    0.57    0.62    0.62
 2022 183    63     0     0    10.6     7.9     2.7     0.0   24.42   21.69    0.88    0.00    0.00   24.42    3.61    9.28    0.00    0.19     0.2     0.3    0.24    0.26    0.43    0.29    0.30    0.46    0.49    0.32    0.24    0.22    0.18    0.13    0.12    0.12    0.15    0.13    0.10    0.51    0.43    0.48    0.43    0.39    0.55    0.41    0.45    0.59    0.59
 2022 184    64     0     0    10.5     7.8     2.7     0.0   25.05   22.32    0.91    0.00    0.00   25.05    3.76    9.82    0.00    0.20     0.2     0.2    0.27    0.27    0.33    0.37    0.31    0.43    0.46    0.31    0.24    0.22    0.18    0.13    0.12    0.12    0.15    0.13    0.10    0.51    0.44    0.45    0.45    0.40    0.45    0.48    0.46    0.56    0.56
 2022 185    65     0     0    10.6     7.8     2.7     0.0   25.71   22.99    0.94    0.00    0.00   25.71    3.96   10.19    0.00    0.23     0.2     0.3    0.28    0.28    0.31    0.33    0.35    0.42    0.46    0.31    0.24    0.22    0.18    0.13    0.12    0.12    0.15    0.13    0.10    0.54    0.46    0.47    0.46    0.40    0.42    0.44    0.50    0.56    0.56
 2022 186    66     0     0    10.1     7.4     2.7     0.0   26.36   23.65    0.97    0.00    0.00   26.36    4.20   11.00    0.00    0.22     0.2     0.3    0.24    0.26    0.44    0.30    0.27    0.41    0.43    0.30    0.24    0.21    0.18    0.13    0.12    0.12    0.15    0.13    0.10    0.52    0.42    0.48    0.42    0.39    0.56    0.41    0.42    0.54    0.53
 2022 187    67     0     0    10.2     7.5     2.7     0.0   27.02   24.32    1.00    0.00    0.00   27.02    4.38   11.36    0.00    0.24     0.2     0.3    0.28    0.28    0.35    0.31    0.31    0.40    0.42    0.30    0.23    0.21    0.18    0.13    0.12    0.12    0.15    0.13    0.10    0.53    0.45    0.46    0.46    0.40    0.46    0.43    0.46    0.53    0.52
 2022 188    68     0     0    10.0     7.3     2.7     0.0   27.67   24.97    1.03    0.00    0.00   27.67    4.63   11.96    0.00    0.19     0.2     0.2    0.28    0.27    0.35    0.32    0.30    0.39    0.41    0.30    0.24    0.21    0.18    0.13    0.12    0.12    0.15    0.13    0.10    0.49    0.44    0.45    0.45    0.40    0.46    0.44    0.45    0.52    0.51
 2022 189    69     0     0    10.1     7.4     2.7     0.0   28.34   25.64    1.06    0.00    0.00   28.34    4.85   12.33    0.00    0.21     0.2     0.3    0.28    0.28    0.31    0.31    0.33    0.39    0.40    0.30    0.23    0.21    0.17    0.13    0.12    0.12    0.15    0.13    0.10    0.51    0.46    0.46    0.46    0.40    0.42    0.42    0.48    0.53    0.51
 2022 190    70     0     0    10.1     7.4     2.7     0.0   29.00   26.31    1.09    0.00    0.00   29.00    5.10   12.68    0.00    0.24     0.2     0.3    0.29    0.28    0.29    0.29    0.34    0.39    0.41    0.29    0.23    0.21    0.17    0.13    0.12    0.12    0.15    0.13    0.10    0.53    0.47    0.47    0.46    0.40    0.41    0.41    0.49    0.53    0.51
 2022 191    71     0     0    10.1     7.4     2.7     0.0   29.65   26.97    1.12    0.00    0.00   29.65    5.36   13.02    0.00    0.26     0.2     0.3    0.29    0.28    0.29    0.29    0.35    0.40    0.41    0.29    0.23    0.21    0.17    0.13    0.11    0.12    0.15    0.13    0.10    0.54    0.47    0.47    0.46    0.40    0.40    0.40    0.50    0.53    0.51
 2022 192    72     0     0    10.2     7.5     2.7     0.0   30.32   27.66    1.15    0.00    0.00   30.32    5.62   13.35    0.00    0.27     0.3     0.3    0.29    0.28    0.29    0.29    0.36    0.41    0.41    0.28    0.23    0.21    0.17    0.12    0.11    0.12    0.15    0.13    0.10    0.56    0.48    0.48    0.46    0.40    0.40    0.40    0.50    0.54    0.51
 2022 193    73     0     0    10.2     7.5     2.7     0.0   30.98   28.32    1.18    0.00    0.00   30.98    5.92   13.68    0.00    0.25     0.3     0.3    0.29    0.28    0.29    0.29    0.36    0.41    0.42    0.29    0.23    0.21    0.17    0.12    0.11    0.12    0.15    0.13    0.10    0.54    0.48    0.48    0.46    0.40    0.40    0.40    0.51    0.54    0.52
 2022 194    74     0     0    10.2     7.5     2.7     0.0   31.62   28.96    1.21    0.00    0.00   31.62    6.20   14.01    0.00    0.25     0.2     0.3    0.29    0.28    0.29    0.29    0.36    0.41    0.42    0.29    0.23    0.21    0.17    0.12    0.11    0.12    0.15    0.13    0.10    0.53    0.48    0.48    0.46    0.40    0.40    0.40    0.51    0.54    0.52
 2022 195    75     0     0    10.2     7.5     2.7     0.0   32.28   29.62    1.23    0.00    0.00   32.28    6.47   14.34    0.00    0.26     0.2     0.3    0.29    0.28    0.29    0.29    0.36    0.41    0.43    0.29    0.23    0.21    0.17    0.12    0.11    0.12    0.15    0.13    0.10    0.54    0.48    0.48    0.46    0.40    0.40    0.40    0.50    0.54    0.53