*PLANT N OUTPUT FILE

*DSSAT Cropping System Model Ver. 4.8.2.000 -release  JAN 24, 2025 00:02:17

*RUN   1        : silt_loam_13in_irr        MZCER048 UNLI2201    1
 MODEL          : MZCER048 - Maize
 EXPERIMENT     : UNLI2201 MZ IRRIGATED MAIZE PRODUCTION
 DATA PATH      :
 TREATMENT  1   : silt_loam_13in_irr        MZCER048
  
@YEAR DOY   DAS   DAP   CNAD   GNAD   VNAD   GN%D   VN%D   NUPC   LNAD   SNAD   LN%D   SN%D   RN%D   SNN0C   SNN1C
 2022 129     9     0    0.0    0.0    0.0   0.00   0.00    0.0    0.0    0.0    0.0   0.00   0.00    0.00    0.00
 2022 130    10     1    0.0    0.0    0.0   0.00   0.00    0.0    0.0    0.0    0.0   0.00   0.00    0.00    0.00
 2022 131    11     2    0.0    0.0    0.0   0.00   0.00    0.0    0.0    0.0    0.0   0.00   0.00    0.00    0.00
 2022 132    12     3    0.0    0.0    0.0   0.00   0.00    0.0    0.0    0.0    0.0   0.00   0.00    0.00    0.00
 2022 133    13     4    0.0    0.0    0.0   0.00   0.00    0.0    0.0    0.0    0.0   0.00   0.00    0.00    0.00
 2022 134    14     5    0.0    0.0    0.0   0.00   0.00    0.0    0.0    0.0    0.0   0.00   0.00    0.00    0.00
 2022 135    15     6    0.0    0.0    0.0   0.00   0.00    0.0    0.0    0.0    0.0   0.00   0.00    0.00    0.00
 2022 136    16     7    0.0    0.0    0.0   0.00   0.00    0.0    0.0    0.0    0.0   0.00   0.00    0.00    0.00
 2022 137    17     8    1.4    0.0    1.4   0.00   4.40    0.0    0.7    0.7    4.4   4.40   2.19    0.00    0.00
 2022 138    18     9    1.4    0.0    1.4   0.00   4.40    0.0    0.7    0.7    4.4   4.40   2.10    0.00    0.00
 2022 139    19    10    1.4    0.0    1.4   0.00   4.40    0.0    0.7    0.7    4.4   4.40   1.97    0.00    0.00
 2022 140    20    11    1.4    0.0    1.4   0.00   4.40    0.0    0.7    0.7    4.4   4.40   1.95    0.00    0.00
 2022 141    21    12    1.4    0.0    1.4   0.00   4.40    0.0    0.7    0.7    4.4   4.40   1.91    0.00    0.00
 2022 142    22    13    1.4    0.0    1.4   0.00   4.40    0.0    0.7    0.7    4.4   4.40   1.86    0.00    0.00
 2022 143    23    14    1.4    0.0    1.4   0.00   4.40    0.0    0.7    0.7    4.4   4.40   1.87    0.00    0.00
 2022 144    24    15    1.4    0.0    1.4   0.00   4.40    0.0    0.7    0.7    4.4   4.40   1.87    0.00    0.00
 2022 145    25    16    1.4    0.0    1.4   0.00   4.40    0.0    0.7    0.7    4.4   4.40   1.85    0.00    0.00
 2022 146    26    17    1.4    0.0    1.4   0.00   4.40    0.0    0.7    0.7    4.4   4.40   1.78    0.00    0.00
 2022 147    27    18    1.4    0.0    1.4   0.00   4.40    0.0    0.7    0.7    4.4   4.40   1.67    0.00    0.00
 2022 148    28    19    1.4    0.0    1.4   0.00   4.40    0.0    0.7    0.7    4.4   4.40   1.53    0.00    0.00
 2022 149    29    20    1.4    0.0    1.4   0.00   4.40    0.0    0.7    0.7    4.4   4.40   1.29    0.00    0.00
 2022 150    30    21    1.4    0.0    1.4   0.00   4.02    0.0    0.8    0.6    4.0   4.02   1.12    0.00    0.00
 2022 151    31    22    1.4    0.0    1.4   0.00   3.65    0.0    0.8    0.6    3.7   3.65   0.98    0.00    0.00
 2022 152    32    23    1.4    0.0    1.4   0.00   3.32    0.0    0.9    0.5    3.3   3.32   0.81    0.00    0.00
 2022 153    33    24    1.4    0.0    1.4   0.00   2.96    0.0    0.9    0.5    3.0   2.96   0.66    0.00    0.00
 2022 154    34    25    1.4    0.0    1.4   0.00   2.58    0.0    1.0    0.4    2.6   2.58   0.56    0.00    0.00
 2022 155    35    26    1.4    0.0    1.4   0.00   2.13    0.0    1.1    0.3    2.1   2.13   0.47    0.00    0.00
 2022 156    36    27    1.4    0.0    1.4   0.00   1.79    0.0    1.1    0.3    1.8   1.79   0.43    0.00    0.00
 2022 157    37    28    1.4    0.0    1.4   0.00   1.50    0.0    1.2    0.2    1.5   1.50   0.38    0.00    0.00
 2022 158    38    29    1.4    0.0    1.4   0.00   1.34    0.0    1.2    0.2    1.3   1.34   0.37    0.00    0.00
 2022 159    39    30    1.4    0.0    1.4   0.00   1.18    0.0    1.2    0.2    1.2   1.18   0.34    0.00    0.00
 2022 160    40    31    1.4    0.0    1.4   0.00   1.25    0.0    1.2    0.2    1.2   1.25   0.31    0.00    0.00
 2022 161    41    32    1.4    0.0    1.4   0.00   1.24    0.0    1.2    0.2    1.2   1.24   0.29    0.00    0.00
 2022 162    42    33    1.4    0.0    1.4   0.00   1.21    0.0    1.2    0.2    1.2   1.21   0.27    0.00    0.00
 2022 163    43    34    1.4    0.0    1.4   0.00   1.20    0.1    1.2    0.2    1.2   1.20   0.26    0.00    0.00
 2022 164    44    35    1.5    0.0    1.5   0.00   1.20    0.1    1.3    0.2    1.2   1.20   0.26    0.00    0.01
 2022 165    45    36    1.6    0.0    1.6   0.00   1.24    0.3    1.4    0.2    1.2   1.24   0.28    0.00    0.01
 2022 166    46    37    1.7    0.0    1.7   0.00   1.28    0.4    1.5    0.2    1.3   1.28   0.30    0.00    0.01
 2022 167    47    38    1.8    0.0    1.8   0.00   1.31    0.6    1.6    0.2    1.3   1.31   0.32    0.00    0.01
 2022 168    48    39    2.0    0.0    2.0   0.00   1.29    0.8    1.8    0.2    1.3   1.29   0.33    0.00    0.01
 2022 169    49    40    2.1    0.0    2.1   0.00   1.26    1.1    1.9    0.2    1.3   1.26   0.35    0.00    0.02
 2022 170    50    41    2.3    0.0    2.3   0.00   1.21    1.3    2.1    0.2    1.2   1.21   0.36    0.00    0.02
 2022 171    51    42    2.5    0.0    2.5   0.00   1.18    1.5    2.2    0.2    1.2   1.18   0.38    0.00    0.02
 2022 172    52    43    2.6    0.0    2.6   0.00   1.20    1.8    2.4    0.2    1.2   1.20   0.39    0.00    0.03
 2022 173    53    44    2.8    0.0    2.8   0.00   1.20    2.0    2.5    0.3    1.2   1.20   0.40    0.00    0.03
 2022 174    54    45    2.9    0.0    2.9   0.00   1.15    2.2    2.6    0.3    1.1   1.15   0.40    0.00    0.04
 2022 175    55    46    3.1    0.0    3.1   0.00   1.11    2.4    2.8    0.3    1.1   1.11   0.40    0.00    0.04
 2022 176    56    47    3.2    0.0    3.2   0.00   1.10    2.6    2.9    0.4    1.1   1.10   0.40    0.00    0.05
 2022 177    57    48    3.4    0.0    3.4   0.00   1.11    2.7    3.0    0.4    1.1   1.11   0.39    0.00    0.05
 2022 178    58    49    3.5    0.0    3.5   0.00   1.08    2.9    3.0    0.4    1.1   1.08   0.39    0.00    0.06
 2022 179    59    50    3.6    0.0    3.6   0.00   1.05    3.1    3.1    0.5    1.1   1.05   0.38    0.00    0.06
 2022 180    60    51    3.7    0.0    3.7   0.00   1.00    3.2    3.2    0.5    1.0   1.00   0.38    0.00    0.07
 2022 181    61    52    3.9    0.0    3.9   0.00   0.97    3.4    3.2    0.6    1.0   0.97   0.39    0.00    0.08
 2022 182    62    53    4.0    0.0    4.0   0.00   0.95    3.6    3.3    0.7    1.0   0.95   0.39    0.00    0.08
 2022 183    63    54    4.1    0.0    4.1   0.00   0.93    3.8    3.4    0.7    0.9   0.93   0.39    0.00    0.09
 2022 184    64    55    4.3    0.0    4.3   0.00   0.91    4.0    3.4    0.8    0.9   0.91   0.39    0.00    0.09
 2022 185    65    56    4.5    0.0    4.5   0.00   0.89    4.2    3.5    1.0    0.9   0.89   0.40    0.00    0.10
 2022 186    66    57    4.6    0.0    4.6   0.00   0.85    4.4    3.5    1.1    0.9   0.85   0.40    0.00    0.11
 2022 187    67    58    4.8    0.0    4.8   0.00   0.85    4.6    3.6    1.2    0.8   0.85   0.41    0.00    0.12
 2022 188    68    59    5.0    0.0    5.0   0.00   0.82    4.8    3.7    1.3    0.8   0.82   0.42    0.00    0.12
 2022 189    69    60    5.2    0.0    5.2   0.00   0.79    5.1    3.7    1.5    0.8   0.79   0.42    0.00    0.13
 2022 190    70    61    5.4    0.0    5.4   0.00   0.77    5.4    3.7    1.8    0.8   0.77   0.43    0.00    0.14
 2022 191    71    62    5.7    0.0    5.7   0.00   0.74    5.6    3.7    2.0    0.7   0.74   0.44    0.00    0.15
 2022 192    72    63    5.9    0.0    5.9   0.00   0.74    5.9    3.7    2.2    0.7   0.74   0.44    0.00    0.15
 2022 193    73    64    6.1    0.0    6.1   0.00   0.74    6.2    3.8    2.3    0.7   0.74   0.44    0.00    0.16
 2022 194    74    65    6.4    0.0    6.4   0.00   0.73    6.5    3.8    2.6    0.7   0.73   0.45    0.00    0.17
 2022 195    75    66    6.6    0.0    6.6   0.00   0.72    6.8    3.8    2.8    0.7   0.72   0.45    0.00    0.18
 2022 196    76    67    6.9    0.0    6.9   0.00   0.72    7.1    3.9    3.0    0.7   0.72   0.46    0.00    0.19
 2022 197    77    68    7.2    0.0    7.2   0.00   0.72    7.4    3.9    3.2    0.7   0.72   0.47    0.00    0.20
 2022 198    78    69    7.4    0.0    7.4   0.00   0.72    7.7    4.0    3.4    0.7   0.72   0.47    0.00    0.20
 2022 199    79    70    7.7    0.0    7.7   0.00   0.72    8.0    4.1    3.6    0.7   0.72   0.48    0.00    0.21
 2022 200    80    71    8.0    0.0    8.0   0.00   0.74    8.4    4.2    3.8    0.7   0.74   0.49    0.00    0.22
 2022 201    81    72    8.3    0.0    8.3   0.00   0.75    8.7    4.4    4.0    0.7   0.75   0.49    0.00    0.23
 2022 202    82    73    8.5    0.0    8.5   0.00   0.75    9.0    4.4    4.1    0.7   0.75   0.50    0.00    0.24
 2022 203    83    74    8.8    0.0    8.8   0.00   0.75    9.3    4.4    4.5    0.7   0.75   0.50    0.00    0.25
 2022 204    84    75    9.1    0.0    9.1   0.00   0.75    9.6    4.3    4.8    0.8   0.75   0.51    0.00    0.26
 2022 205    85    76    9.4    0.0    9.4   0.00   0.76    9.9    4.2    5.1    0.8   0.76   0.52    0.00    0.27
 2022 206    86    77    9.6    0.0    9.6   0.00   0.78   10.2    4.3    5.3    0.8   0.78   0.53    0.00    0.28
 2022 207    87    78    9.8    0.0    9.8   0.00   0.79   10.5    4.2    5.6    0.8   0.79   0.54    0.00    0.29
 2022 208    88    79    9.9    0.0    9.9   0.00   0.79   10.6    4.1    5.8    0.8   0.79   0.54    0.00    0.30
 2022 209    89    80   10.2    0.0   10.2   0.00   0.79   10.9    4.1    6.1    0.8   0.79   0.55    0.00    0.31
 2022 210    90    81   10.3    0.0   10.3   0.00   0.80   11.1    4.0    6.3    0.8   0.80   0.55    0.00    0.33
 2022 211    91    82   10.5    0.0   10.5   0.00   0.80   11.3    3.9    6.6    0.8   0.80   0.56    0.00    0.34
 2022 212    92    83   10.6    0.0   10.6   0.00   0.80   11.4    3.8    6.9    0.8   0.80   0.56    0.00    0.35
 2022 213    93    84   10.8    0.0   10.8   0.00   0.80   11.6    3.7    7.1    0.8   0.80   0.57    0.00    0.36
 2022 214    94    85   11.0    0.4   10.6   0.77   0.79   11.9    3.6    7.0    0.8   0.79   0.58    0.00    0.37
 2022 215    95    86   11.2    0.5   10.8   0.75   0.80   12.1    3.7    7.1    0.8   0.80   0.58    0.00    0.38
 2022 216    96    87   11.5    0.6   10.9   0.75   0.81   12.4    3.7    7.2    0.8   0.81   0.58    0.00    0.39
 2022 217    97    88   11.8    0.6   11.1   0.75   0.83   12.8    3.8    7.4    0.8   0.83   0.58    0.00    0.40
 2022 218    98    89   12.1    0.8   11.4   0.76   0.85   13.2    3.9    7.5    0.8   0.85   0.59    0.00    0.42
 2022 219    99    90   12.4    0.9   11.5   0.76   0.86   13.5    3.9    7.6    0.9   0.86   0.60    0.00    0.43
 2022 220   100    91   12.6    1.0   11.7   0.77   0.87   13.8    4.0    7.7    0.9   0.87   0.61    0.00    0.44
 2022 221   101    92   12.9    1.1   11.8   0.78   0.88   14.1    4.0    7.8    0.9   0.88   0.61    0.00    0.45
 2022 222   102    93   13.1    1.2   11.9   0.78   0.88   14.4    4.0    7.8    0.9   0.88   0.61    0.00    0.47
 2022 223   103    94   13.3    1.4   12.0   0.79   0.89   14.7    4.1    7.9    0.9   0.89   0.62    0.00    0.48
 2022 224   104    95   13.6    1.5   12.1   0.80   0.90   15.0    4.1    8.0    0.9   0.90   0.62    0.00    0.49
 2022 225   105    96   13.8    1.6   12.2   0.81   0.91   15.3    4.1    8.1    0.9   0.91   0.63    0.00    0.50
 2022 226   106    97   14.1    1.8   12.4   0.82   0.92   15.7    4.2    8.2    0.9   0.92   0.64    0.00    0.52
 2022 227   107    98   14.4    1.9   12.5   0.83   0.93   16.0    4.2    8.2    0.9   0.93   0.65    0.00    0.53
 2022 228   108    99   14.6    2.0   12.6   0.84   0.94   16.4    4.3    8.3    0.9   0.94   0.66    0.00    0.55
 2022 229   109   100   14.9    2.2   12.7   0.85   0.94   16.6    4.3    8.4    0.9   0.94   0.67    0.00    0.56
 2022 230   110   101   15.1    2.3   12.7   0.86   0.95   16.9    4.3    8.4    0.9   0.95   0.68    0.00    0.58
 2022 231   111   102   15.3    2.5   12.8   0.87   0.95   17.2    4.3    8.4    1.0   0.95   0.69    0.00    0.59
 2022 232   112   103   15.5    2.6   12.8   0.88   0.95   17.4    4.4    8.5    1.0   0.95   0.69    0.00    0.61
 2022 233   113   104   15.6    2.8   12.8   0.89   0.96   17.7    4.4    8.5    1.0   0.96   0.70    0.00    0.62
 2022 234   114   105   15.8    3.0   12.9   0.89   0.96   17.9    4.4    8.5    1.0   0.96   0.70    0.00    0.64
 2022 235   115   106   16.0    3.1   12.9   0.90   0.96   18.2    4.4    8.5    1.0   0.96   0.71    0.00    0.65
 2022 236   116   107   16.2    3.3   12.9   0.91   0.96   18.5    4.4    8.5    1.0   0.96   0.72    0.00    0.67
 2022 237   117   108   16.4    3.4   13.0   0.92   0.96   18.8    4.4    8.6    1.0   0.96   0.73    0.00    0.69
 2022 238   118   109   16.6    3.6   13.0   0.93   0.97   19.1    4.4    8.6    1.0   0.97   0.75    0.00    0.71
 2022 239   119   110   16.8    3.8   13.0   0.94   0.97   19.4    4.4    8.6    1.0   0.97   0.76    0.00    0.72
 2022 240   120   111   17.1    4.0   13.1   0.95   0.97   19.7    4.4    8.7    1.0   0.97   0.77    0.00    0.74
 2022 241   121   112   17.3    4.2   13.2   0.97   0.98   20.1    4.5    8.7    1.0   0.98   0.79    0.00    0.76
 2022 242   122   113   17.6    4.3   13.2   0.98   0.99   20.5    4.5    8.7    1.0   0.99   0.81    0.00    0.78
 2022 243   123   114   17.8    4.5   13.3   0.99   0.99   20.8    4.5    8.8    1.0   0.99   0.82    0.00    0.80
 2022 244   124   115   18.0    4.7   13.3   1.00   0.99   21.1    4.5    8.8    1.0   0.99   0.84    0.00    0.82
 2022 245   125   116   18.3    4.9   13.3   1.01   0.99   21.5    4.5    8.8    1.0   0.99   0.86    0.00    0.84
 2022 246   126   117   18.5    5.1   13.3   1.02   0.99   21.8    4.5    8.8    1.0   0.99   0.87    0.00    0.86
 2022 247   127   118   18.7    5.3   13.3   1.03   0.99   22.1    4.5    8.8    1.0   0.99   0.89    0.00    0.88
 2022 248   128   119   18.9    5.6   13.3   1.04   0.99   22.4    4.5    8.8    1.0   0.99   0.90    0.00    0.90
 2022 249   129   120   19.1    5.8   13.3   1.05   0.99   22.7    4.5    8.8    1.0   0.99   0.92    0.00    0.92
 2022 250   130   121   19.3    6.0   13.3   1.07   0.99   23.0    4.5    8.8    1.0   0.99   0.93    0.00    0.94
 2022 251   131   122   19.4    6.2   13.3   1.08   0.99   23.3    4.5    8.8    1.0   0.99   0.95    0.00    0.97
 2022 252   132   123   19.7    6.4   13.3   1.09   0.99   23.7    4.5    8.8    1.0   0.99   0.97    0.00    0.99
 2022 253   133   124   19.9    6.6   13.3   1.10   0.99   24.0    4.5    8.8    1.0   0.99   0.99    0.00    1.01
 2022 254   134   125   20.0    6.7   13.3   1.11   0.99   24.2    4.5    8.8    1.0   0.99   1.00    0.00    1.04
 2022 255   135   126   20.2    7.0   13.2   1.12   0.98   24.5    4.5    8.7    1.0   0.98   1.01    0.00    1.06
 2022 256   136   127   20.4    7.2   13.2   1.13   0.98   24.7    4.5    8.7    1.0   0.98   1.02    0.00    1.09
 2022 257   137   128   20.5    7.5   13.1   1.14   0.97   24.9    4.4    8.6    1.0   0.97   1.03    0.00    1.11
 2022 258   138   129   20.7    7.7   13.0   1.15   0.96   25.1    4.4    8.6    1.0   0.96   1.04    0.00    1.14
 2022 259   139   130   20.8    7.9   12.8   1.16   0.95   25.3    4.3    8.5    1.0   0.95   1.05    0.00    1.16
 2022 260   140   131   20.8    7.9   12.8   1.16   0.95   25.3    4.3    8.5    1.0   0.95   1.05    0.00    1.16
 2022 261   141   132   20.8    7.9   12.8   1.16   0.95   25.3    4.3    8.5    1.0   0.95   1.05    0.00    1.16
 2022 262   142   133   20.8    7.9   12.8   1.16   0.95   25.3    4.3    8.5    1.0   0.95   1.05    0.00    1.16
 2022 263   143   134   20.8    7.9   12.8   1.16   0.95   25.3    4.3    8.5    1.0   0.95   1.05    0.00    1.16
