*Soil Organic Matter daily output file

*DSSAT Cropping System Model Ver. 4.8.2.000 -release  JAN 24, 2025 00:02:17

*RUN   1        : silt_loam_13in_irr        MZCER048 UNLI2201    1
 MODEL          : MZCER048 - Maize
 EXPERIMENT     : UNLI2201 MZ IRRIGATED MAIZE PRODUCTION
 DATA PATH      :
 TREATMENT  1   : silt_loam_13in_irr        MZCER048
  
@YEAR DOY   DAS    OMAC    SCDD    SOCD    SC0D    SCTD   SOMCT    LCTD    ONAC    SNDD    SOND    SN0D    SNTD   SOMNT    LNTD
 2022 120     0       0   14312  148718       0  148718  148718     0.0    0.00  1431.2 14871.8    0.00 14871.8 14871.8    0.00
 2022 121     1       0   14312  148717       0  148717  148717     0.0    0.00  1431.2 14871.7    0.00 14871.7 14871.7    0.00
 2022 122     2       0   14312  148716       0  148716  148716     0.0    0.00  1431.2 14871.6    0.00 14871.6 14871.6    0.00
 2022 123     3       0   14312  148715       0  148715  148715     0.0    0.00  1431.2 14871.5    0.00 14871.5 14871.5    0.00
 2022 124     4       0   14312  148714       0  148714  148714     0.0    0.00  1431.2 14871.4    0.00 14871.4 14871.4    0.00
 2022 125     5       0   14311  148714       0  148714  148714     0.0    0.00  1431.1 14871.4    0.00 14871.4 14871.4    0.00
 2022 126     6       0   14311  148714       0  148714  148714     0.0    0.00  1431.1 14871.4    0.00 14871.4 14871.4    0.00
 2022 127     7       0   14311  148713       0  148713  148713     0.0    0.00  1431.1 14871.3    0.00 14871.3 14871.3    0.00
 2022 128     8       0   14311  148712       0  148712  148712     0.0    0.00  1431.1 14871.2    0.00 14871.2 14871.2    0.00
 2022 129     9       0   14311  148710       0  148710  148710     0.0    0.00  1431.1 14871.0    0.00 14871.0 14871.0    0.00
 2022 130    10       0   14310  148707       0  148707  148707     0.0    0.00  1431.0 14870.7    0.00 14870.7 14870.7    0.00
 2022 131    11       0   14310  148703       0  148703  148703     0.0    0.00  1431.0 14870.3    0.00 14870.3 14870.3    0.00
 2022 132    12       0   14309  148700       0  148700  148700     0.0    0.00  1430.9 14870.0    0.00 14870.0 14870.0    0.00
 2022 133    13       0   14309  148695       0  148695  148695     0.0    0.00  1430.9 14869.6    0.00 14869.6 14869.6    0.00
 2022 134    14       0   14308  148692       0  148692  148692     0.0    0.00  1430.8 14869.2    0.00 14869.2 14869.2    0.00
 2022 135    15       0   14308  148688       0  148688  148688     0.0    0.00  1430.8 14868.8    0.00 14868.8 14868.8    0.00
 2022 136    16       0   14307  148684       0  148684  148684     0.0    0.00  1430.7 14868.4    0.00 14868.4 14868.4    0.00
 2022 137    17       0   14307  148680       0  148680  148680     0.0    0.00  1430.7 14868.0    0.00 14868.0 14868.0    0.00
 2022 138    18       0   14306  148677       0  148677  148677     0.0    0.00  1430.6 14867.7    0.00 14867.7 14867.7    0.00
 2022 139    19       0   14306  148673       0  148673  148673     0.0    0.00  1430.6 14867.3    0.00 14867.3 14867.3    0.00
 2022 140    20       0   14305  148669       0  148669  148669     0.0    0.00  1430.5 14866.9    0.00 14866.9 14866.9    0.00
 2022 141    21       0   14305  148665       0  148665  148665     0.0    0.00  1430.5 14866.5    0.00 14866.5 14866.5    0.00
 2022 142    22       0   14304  148662       0  148662  148662     0.0    0.00  1430.4 14866.2    0.00 14866.2 14866.2    0.00
 2022 143    23       0   14304  148660       0  148660  148660     0.0    0.00  1430.4 14866.0    0.00 14866.0 14866.0    0.00
 2022 144    24       0   14304  148659       0  148659  148659     0.0    0.00  1430.4 14865.9    0.00 14865.9 14865.9    0.00
 2022 145    25       0   14304  148658       0  148658  148658     0.0    0.00  1430.4 14865.8    0.00 14865.8 14865.8    0.00
 2022 146    26       0   14304  148657       0  148657  148657     0.0    0.00  1430.4 14865.7    0.00 14865.7 14865.7    0.00
 2022 147    27       0   14303  148655       0  148655  148655     0.0    0.00  1430.3 14865.5    0.00 14865.5 14865.5    0.00
 2022 148    28       0   14303  148653       0  148653  148653     0.0    0.00  1430.3 14865.3    0.00 14865.3 14865.3    0.00
 2022 149    29       0   14303  148650       0  148650  148650     0.0    0.00  1430.3 14865.0    0.00 14865.0 14865.0    0.00
 2022 150    30       0   14302  148646       0  148646  148646     0.0    0.00  1430.2 14864.6    0.00 14864.6 14864.6    0.00
 2022 151    31       0   14302  148642       0  148642  148642     0.0    0.00  1430.2 14864.2    0.00 14864.2 14864.2    0.00
 2022 152    32       0   14301  148638       0  148638  148638     0.0    0.00  1430.1 14863.8    0.00 14863.8 14863.8    0.00
 2022 153    33       0   14301  148635       0  148635  148635     0.0    0.00  1430.1 14863.5    0.00 14863.5 14863.5    0.00
 2022 154    34       0   14300  148632       0  148632  148632     0.0    0.00  1430.0 14863.2    0.00 14863.2 14863.2    0.00
 2022 155    35       0   14300  148629       0  148629  148629     0.0    0.00  1430.0 14862.9    0.00 14862.9 14862.9    0.00
 2022 156    36       0   14299  148625       0  148625  148625     0.0    0.00  1429.9 14862.5    0.00 14862.5 14862.5    0.00
 2022 157    37       0   14299  148622       0  148622  148622     0.0    0.00  1429.9 14862.2    0.00 14862.2 14862.2    0.00
 2022 158    38       0   14298  148618       0  148618  148618     0.0    0.00  1429.8 14861.8    0.00 14861.8 14861.8    0.00
 2022 159    39       0   14298  148613       0  148613  148613     0.0    0.00  1429.8 14861.3    0.00 14861.3 14861.3    0.00
 2022 160    40       0   14297  148609       0  148609  148609     0.0    0.00  1429.7 14860.9    0.00 14860.9 14860.9    0.00
 2022 161    41       0   14297  148604       0  148604  148604     0.0    0.00  1429.7 14860.4    0.00 14860.4 14860.4    0.00
 2022 162    42       0   14296  148600       0  148600  148600     0.0    0.00  1429.6 14860.0    0.00 14860.0 14860.0    0.00
 2022 163    43       0   14296  148595       0  148595  148595     0.2    0.00  1429.6 14859.5    0.00 14859.5 14859.5    0.00
 2022 164    44       0   14295  148590       0  148590  148590     0.5    0.00  1429.5 14859.0    0.00 14859.0 14859.0    0.00
 2022 165    45       0   14294  148584       0  148584  148584     0.8    0.00  1429.4 14858.4    0.00 14858.4 14858.4    0.01
 2022 166    46       0   14293  148578       0  148578  148577     1.1    0.00  1429.3 14857.7    0.00 14857.7 14857.7    0.01
 2022 167    47       0   14293  148572       0  148572  148571     1.4    0.00  1429.3 14857.1    0.00 14857.1 14857.1    0.01
 2022 168    48       0   14292  148566       0  148566  148565     1.7    0.00  1429.2 14856.5    0.00 14856.5 14856.5    0.01
 2022 169    49       0   14291  148560       0  148560  148558     2.1    0.00  1429.1 14855.8    0.00 14855.8 14855.8    0.01
 2022 170    50       0   14290  148554       0  148554  148552     2.4    0.00  1429.0 14855.2    0.00 14855.2 14855.2    0.02
 2022 171    51       0   14289  148548       0  148548  148545     2.8    0.00  1428.9 14854.5    0.00 14854.5 14854.5    0.02
 2022 172    52       0   14289  148541       0  148541  148538     3.2    0.00  1428.9 14853.8    0.00 14853.8 14853.8    0.02
 2022 173    53       0   14288  148534       0  148534  148531     3.7    0.00  1428.8 14853.1    0.00 14853.1 14853.1    0.03
 2022 174    54       0   14287  148528       0  148528  148524     4.1    0.00  1428.7 14852.5    0.00 14852.5 14852.4    0.03
 2022 175    55       0   14286  148522       0  148522  148518     4.5    0.00  1428.6 14851.8    0.00 14851.8 14851.8    0.04
 2022 176    56       0   14285  148517       0  148517  148512     5.0    0.00  1428.5 14851.2    0.00 14851.2 14851.2    0.04
 2022 177    57       0   14285  148512       0  148512  148507     5.5    0.00  1428.5 14850.7    0.00 14850.7 14850.7    0.05
 2022 178    58       0   14284  148507       0  148507  148501     6.1    0.00  1428.4 14850.2    0.00 14850.2 14850.1    0.05
 2022 179    59       0   14283  148503       0  148503  148496     6.5    0.00  1428.3 14849.7    0.00 14849.7 14849.6    0.06
 2022 180    60       0   14283  148498       0  148498  148491     7.1    0.00  1428.3 14849.2    0.00 14849.2 14849.1    0.07
 2022 181    61       0   14282  148493       0  148493  148486     7.6    0.00  1428.2 14848.6    0.00 14848.6 14848.6    0.08
 2022 182    62       0   14282  148488       0  148488  148480     8.2    0.00  1428.1 14848.1    0.00 14848.1 14848.0    0.08
 2022 183    63       0   14281  148482       0  148482  148474     8.6    0.00  1428.1 14847.5    0.00 14847.5 14847.4    0.09
 2022 184    64       0   14280  148476       0  148476  148467     9.1    0.00  1428.0 14846.8    0.00 14846.8 14846.7    0.10
 2022 185    65       0   14279  148470       0  148470  148461     9.6    0.00  1427.9 14846.2    0.00 14846.2 14846.1    0.11
 2022 186    66       0   14278  148464       0  148464  148454    10.2    0.00  1427.8 14845.5    0.00 14845.5 14845.4    0.12
 2022 187    67       0   14278  148458       0  148458  148448    10.7    0.00  1427.8 14844.9    0.00 14844.9 14844.7    0.14
 2022 188    68       0   14277  148452       0  148452  148441    11.1    0.00  1427.7 14844.2    0.00 14844.2 14844.1    0.15
 2022 189    69       0   14276  148446       0  148446  148434    11.5    0.00  1427.6 14843.6    0.00 14843.6 14843.4    0.16
 2022 190    70       0   14275  148440       0  148440  148428    11.9    0.00  1427.5 14842.9    0.00 14842.9 14842.7    0.18
 2022 191    71       0   14275  148433       0  148433  148421    12.2    0.00  1427.4 14842.3    0.00 14842.3 14842.1    0.19
 2022 192    72       0   14274  148427       0  148427  148415    12.6    0.00  1427.4 14841.6    0.00 14841.6 14841.4    0.21
 2022 193    73       0   14273  148421       0  148421  148408    13.0    0.00  1427.3 14841.0    0.00 14841.0 14840.7    0.22
 2022 194    74       0   14272  148415       0  148415  148402    13.4    0.00  1427.2 14840.3    0.00 14840.3 14840.1    0.23
 2022 195    75       0   14272  148409       0  148409  148395    13.8    0.00  1427.1 14839.7    0.00 14839.7 14839.4    0.24
 2022 196    76       0   14271  148402       0  148402  148388    14.2    0.00  1427.1 14839.0    0.00 14839.0 14838.8    0.26
 2022 197    77       0   14270  148396       0  148396  148382    14.6    0.00  1427.0 14838.4    0.00 14838.4 14838.1    0.27
 2022 198    78       0   14269  148390       0  148390  148375    15.0    0.00  1426.9 14837.7    0.00 14837.7 14837.4    0.28
 2022 199    79       0   14268  148383       0  148383  148368    15.4    0.00  1426.8 14837.0    0.00 14837.0 14836.7    0.29
 2022 200    80       0   14268  148376       0  148376  148360    15.8    0.00  1426.7 14836.3    0.00 14836.3 14835.9    0.31
 2022 201    81       0   14267  148370       0  148370  148353    16.2    0.00  1426.6 14835.6    0.00 14835.6 14835.2    0.32
 2022 202    82       0   14266  148363       0  148363  148347    16.6    0.00  1426.6 14834.9    0.00 14834.9 14834.5    0.33
 2022 203    83       0   14265  148357       0  148357  148340    16.9    0.00  1426.5 14834.2    0.00 14834.2 14833.9    0.34
 2022 204    84       0   14264  148350       0  148350  148333    17.3    0.00  1426.4 14833.5    0.00 14833.5 14833.2    0.35
 2022 205    85       0   14264  148343       0  148343  148326    17.7    0.00  1426.3 14832.8    0.00 14832.8 14832.4    0.37
 2022 206    86       0   14263  148337       0  148337  148319    18.0    0.00  1426.2 14832.1    0.00 14832.1 14831.8    0.38
 2022 207    87       0   14262  148331       0  148331  148312    18.3    0.00  1426.2 14831.5    0.00 14831.5 14831.1    0.39
 2022 208    88       0   14261  148325       0  148325  148306    18.7    0.00  1426.1 14830.9    0.00 14830.9 14830.4    0.41
 2022 209    89       0   14261  148319       0  148319  148300    19.0    0.00  1426.0 14830.3    0.00 14830.3 14829.8    0.42
 2022 210    90       0   14260  148314       0  148314  148295    19.5    0.00  1426.0 14829.7    0.00 14829.7 14829.3    0.43
 2022 211    91       0   14260  148309       0  148309  148289    19.9    0.00  1425.9 14829.2    0.00 14829.2 14828.8    0.44
 2022 212    92       0   14259  148304       0  148304  148284    20.3    0.00  1425.8 14828.7    0.00 14828.7 14828.2    0.46
 2022 213    93       0   14258  148299       0  148299  148278    20.6    0.00  1425.8 14828.1    0.00 14828.1 14827.6    0.47
 2022 214    94       0   14258  148293       0  148293  148272    21.0    0.00  1425.7 14827.5    0.00 14827.5 14827.0    0.48
 2022 215    95       0   14257  148287       0  148287  148266    21.2    0.00  1425.6 14826.9    0.00 14826.9 14826.4    0.49
 2022 216    96       0   14256  148280       0  148280  148259    21.5    0.00  1425.6 14826.2    0.00 14826.2 14825.7    0.50
 2022 217    97       0   14255  148274       0  148274  148252    21.8    0.00  1425.5 14825.5    0.00 14825.5 14825.0    0.52
 2022 218    98       0   14255  148266       0  148266  148244    22.0    0.00  1425.4 14824.8    0.00 14824.8 14824.2    0.53
 2022 219    99       0   14254  148259       0  148259  148237    22.2    0.00  1425.3 14824.0    0.00 14824.0 14823.5    0.54
 2022 220   100       0   14253  148253       0  148253  148230    22.6    0.00  1425.2 14823.4    0.00 14823.4 14822.8    0.55
 2022 221   101       0   14252  148247       0  148247  148224    22.9    0.00  1425.2 14822.7    0.00 14822.7 14822.2    0.56
 2022 222   102       0   14252  148241       0  148241  148218    23.2    0.00  1425.1 14822.1    0.00 14822.1 14821.5    0.57
 2022 223   103       0   14251  148235       0  148235  148212    23.6    0.00  1425.0 14821.5    0.00 14821.5 14820.9    0.58
 2022 224   104       0   14250  148230       0  148230  148206    24.0    0.00  1425.0 14820.9    0.00 14820.9 14820.3    0.60
 2022 225   105       0   14250  148223       0  148223  148199    24.3    0.00  1424.9 14820.2    0.00 14820.2 14819.6    0.61
 2022 226   106       0   14249  148216       0  148216  148192    24.6    0.00  1424.8 14819.5    0.00 14819.5 14818.9    0.62
 2022 227   107       0   14248  148209       0  148209  148185    24.9    0.00  1424.7 14818.8    0.00 14818.8 14818.2    0.63
 2022 228   108       0   14247  148203       0  148203  148178    25.2    0.00  1424.6 14818.1    0.00 14818.1 14817.5    0.64
 2022 229   109       0   14247  148197       0  148197  148171    25.6    0.00  1424.6 14817.5    0.00 14817.5 14816.8    0.65
 2022 230   110       0   14246  148191       0  148191  148165    25.9    0.00  1424.5 14816.8    0.00 14816.8 14816.2    0.67
 2022 231   111       0   14245  148185       0  148185  148159    26.3    0.00  1424.4 14816.3    0.00 14816.3 14815.6    0.68
 2022 232   112       0   14245  148180       0  148180  148153    26.8    0.00  1424.4 14815.7    0.00 14815.7 14815.0    0.69
 2022 233   113       0   14244  148175       0  148175  148148    27.2    0.00  1424.3 14815.2    0.00 14815.2 14814.5    0.70
 2022 234   114       0   14244  148170       0  148170  148142    27.6    0.00  1424.3 14814.6    0.00 14814.6 14813.9    0.72
 2022 235   115       0   14243  148165       0  148165  148137    28.1    0.00  1424.2 14814.0    0.00 14814.0 14813.3    0.73
 2022 236   116       0   14242  148159       0  148159  148131    28.5    0.00  1424.1 14813.5    0.00 14813.5 14812.7    0.74
 2022 237   117       0   14242  148154       0  148154  148125    28.9    0.00  1424.1 14812.9    0.00 14812.9 14812.1    0.76
 2022 238   118       0   14241  148148       0  148148  148119    29.3    0.00  1424.0 14812.3    0.00 14812.3 14811.5    0.77
 2022 239   119       0   14240  148142       0  148142  148112    29.6    0.00  1423.9 14811.6    0.00 14811.6 14810.8    0.78
 2022 240   120       0   14240  148135       0  148135  148105    29.9    0.00  1423.9 14810.9    0.00 14810.9 14810.1    0.80
 2022 241   121       0   14239  148128       0  148128  148098    30.2    0.00  1423.8 14810.2    0.00 14810.2 14809.4    0.81
 2022 242   122       0   14238  148122       0  148122  148091    30.5    0.00  1423.7 14809.5    0.00 14809.5 14808.7    0.82
 2022 243   123       0   14238  148115       0  148115  148084    30.9    0.00  1423.6 14808.9    0.00 14808.9 14808.0    0.83
 2022 244   124       0   14237  148109       0  148109  148078    31.2    0.00  1423.6 14808.2    0.00 14808.2 14807.3    0.85
 2022 245   125       0   14236  148103       0  148103  148071    31.6    0.00  1423.5 14807.6    0.00 14807.6 14806.7    0.86
 2022 246   126       0   14236  148097       0  148097  148065    31.9    0.00  1423.4 14806.9    0.00 14806.9 14806.0    0.88
 2022 247   127       0   14235  148091       0  148091  148059    32.3    0.00  1423.4 14806.3    0.00 14806.3 14805.4    0.89
 2022 248   128       0   14234  148085       0  148085  148052    32.7    0.00  1423.3 14805.7    0.00 14805.7 14804.8    0.91
 2022 249   129       0   14234  148080       0  148080  148046    33.1    0.00  1423.2 14805.1    0.00 14805.1 14804.2    0.92
 2022 250   130       0   14233  148074       0  148074  148040    33.5    0.00  1423.2 14804.5    0.00 14804.5 14803.6    0.94
 2022 251   131       0   14233  148068       0  148068  148034    33.9    0.00  1423.1 14803.9    0.00 14803.9 14802.9    0.95
 2022 252   132       0   14232  148062       0  148062  148028    34.2    0.00  1423.1 14803.3    0.00 14803.3 14802.3    0.97
 2022 253   133       0   14231  148056       0  148056  148021    34.5    0.00  1423.0 14802.6    0.00 14802.6 14801.6    0.99
 2022 254   134       0   14231  148050       0  148050  148016    35.0    0.00  1422.9 14802.1    0.00 14802.1 14801.0    1.01
 2022 255   135       0   14230  148046       0  148046  148010    35.4    0.00  1422.9 14801.6    0.00 14801.6 14800.5    1.02
 2022 256   136       0   14230  148041       0  148041  148006    35.9    0.00  1422.8 14801.1    0.00 14801.1 14800.0    1.04
 2022 257   137       0   14229  148038       0  148038  148001    36.4    0.00  1422.8 14800.7    0.00 14800.7 14799.6    1.06
 2022 258   138       0   14229  148033       0  148033  147996    36.9    0.00  1422.7 14800.2    0.00 14800.2 14799.1    1.08
 2022 259   139       0   14228  148028       0  148028  147991    37.3    0.00  1422.7 14799.6    0.00 14799.6 14798.5    1.10
 2022 260   140       0   14228  148023       0  148023  147985    37.6    0.00  1422.6 14799.1    0.00 14799.1 14798.0    1.12
 2022 261   141       0   14227  148016       0  148016  147979    36.9    0.00  1422.6 14798.4    0.00 14798.4 14797.3    1.11
 2022 262   142       0   14227  148009       0  148009  147973    36.2    0.00  1422.5 14797.8    0.00 14797.8 14796.7    1.10
 2022 263   143       0   14226  148002       0  148002  147966    35.6    0.00  1422.4 14797.2    0.00 14797.2 14796.1    1.09
