*SOIL-PLANT-ATMOSPHERE MODULE OUTPUT FILE

*DSSAT Cropping System Model Ver. 4.8.2.000 -release  JAN 24, 2025 00:02:17

*RUN   1        : silt_loam_13in_irr        MZCER048 UNLI2201    1
 MODEL          : MZCER048 - Maize
 EXPERIMENT     : UNLI2201 MZ IRRIGATED MAIZE PRODUCTION
 DATA PATH      :
 TREATMENT  1   : silt_loam_13in_irr        MZCER048
  
!                                                                                                                                                                                        Soil evaporation (mm/d) by soil depth (cm):
!                                                                                                                                                                                        0-5    5-15   15-23   23-38   38-53   53-61   61-69   69-84   84-99  99-160
@YEAR DOY   DAS   SRAA  TMAXA  TMINA    REFA    EOAA    EOPA    EOSA    ETAA    EPAA    ESAA    EFAA    EMAA    EOAC    ETAC    EPAC    ESAC    EFAC    EMAC    KCAA    KBSA    KEAA    ES1D    ES2D    ES3D    ES4D    ES5D    ES6D    ES7D    ES8D    ES9D  ES10D   TRWUD   TWUPD
 2022 121     1  23.70  16.20   3.30 -99.000   4.768   0.000   4.768   0.931   0.000   0.931   0.000   0.000    4.77    0.93    0.00    0.93    0.00    0.00 -99.000 -99.000 -99.000   0.772   0.102   0.023   0.017   0.006   0.002   0.001   0.002   0.002   0.003   0.000   0.000
 2022 122     2   3.80   9.10   0.50 -99.000   0.658   0.000   0.658   0.658   0.000   0.658   0.000   0.000    5.43    1.59    0.00    1.59    0.00    0.00 -99.000 -99.000 -99.000   0.177   0.130   0.058   0.070   0.042   0.017   0.015   0.032   0.027   0.089   0.000   0.000
 2022 123     3  17.50  11.50  -2.30 -99.000   3.248   0.000   3.248   3.248   0.000   3.248   0.000   0.000    8.67    4.84    0.00    4.84    0.00    0.00 -99.000 -99.000 -99.000   0.918   0.652   0.286   0.335   0.200   0.081   0.074   0.153   0.130   0.420   0.000   0.000
 2022 124     4   3.60   8.10   4.60 -99.000   0.665   0.000   0.665   0.665   0.000   0.665   0.000   0.000    9.34    5.50    0.00    5.50    0.00    0.00 -99.000 -99.000 -99.000   0.189   0.127   0.061   0.070   0.042   0.017   0.015   0.032   0.027   0.087   0.000   0.000
 2022 125     5  11.10  13.80   6.30 -99.000   2.310   0.000   2.310   2.310   0.000   2.310   0.000   0.000   11.65    7.81    0.00    7.81    0.00    0.00 -99.000 -99.000 -99.000   0.661   0.421   0.218   0.250   0.148   0.060   0.053   0.110   0.092   0.297   0.000   0.000
 2022 126     6  24.40  26.90   2.80 -99.000   5.861   0.000   5.861   5.861   0.000   5.861   0.000   0.000   17.51   13.67    0.00   13.67    0.00    0.00 -99.000 -99.000 -99.000   1.495   1.043   0.550   0.672   0.404   0.165   0.147   0.306   0.255   0.825   0.000   0.000
 2022 127     7  21.80  27.30   8.40 -99.000   5.393   0.000   5.393   5.393   0.000   5.393   0.000   0.000   22.90   19.07    0.00   19.07    0.00    0.00 -99.000 -99.000 -99.000   1.545   0.922   0.482   0.590   0.355   0.146   0.130   0.269   0.224   0.728   0.000   0.000
 2022 128     8  22.40  24.60  11.50 -99.000   5.691   0.000   5.691   5.691   0.000   5.691   0.000   0.000   28.59   24.76    0.00   24.76    0.00    0.00 -99.000 -99.000 -99.000   1.591   0.953   0.495   0.631   0.383   0.157   0.141   0.294   0.247   0.800   0.000   0.000
 2022 129     9  26.00  23.00  10.30 -99.000   6.233   0.000   6.233   6.233   0.000   6.233   0.000   0.000   34.83   30.99    0.00   30.99    0.00    0.00 -99.000 -99.000 -99.000   1.832   1.169   0.549   0.646   0.387   0.158   0.141   0.294   0.249   0.807   0.000   0.000
 2022 130    10  27.30  24.30   7.30 -99.000   6.696   0.000   6.696   6.696   0.000   6.696   0.000   0.000   41.52   37.69    0.00   37.69    0.00    0.00 -99.000 -99.000 -99.000   2.008   1.428   0.674   0.659   0.380   0.155   0.135   0.276   0.231   0.751   0.000   0.000
 2022 131    11  22.30  32.40  12.80 -99.000   6.294   0.000   6.294   6.294   0.000   6.294   0.000   0.000   47.82   43.98    0.00   43.98    0.00    0.00 -99.000 -99.000 -99.000   1.763   1.362   0.697   0.701   0.381   0.156   0.127   0.246   0.203   0.657   0.000   0.000
 2022 132    12  18.50  30.80  12.30 -99.000   5.116   0.000   5.116   5.116   0.000   5.116   0.000   0.000   52.93   49.10    0.00   49.10    0.00    0.00 -99.000 -99.000 -99.000   1.379   1.059   0.548   0.653   0.350   0.148   0.113   0.198   0.161   0.508   0.000   0.000
 2022 133    13  24.00  24.20   6.30 -99.000   5.845   0.000   5.845   5.845   0.000   5.845   0.000   0.000   58.78   54.94    0.00   54.94    0.00    0.00 -99.000 -99.000 -99.000   1.526   1.164   0.601   0.795   0.443   0.200   0.147   0.230   0.183   0.557   0.000   0.000
 2022 134    14  23.00  22.90   7.90 -99.000   5.580   0.000   5.580   5.580   0.000   5.580   0.000   0.000   64.36   60.52    0.00   60.52    0.00    0.00 -99.000 -99.000 -99.000   1.405   1.074   0.555   0.771   0.459   0.223   0.163   0.229   0.179   0.522   0.000   0.000
 2022 135    15  26.60  22.90   9.20 -99.000   6.531   0.000   6.531   6.531   0.000   6.531   0.000   0.000   70.89   67.05    0.00   67.05    0.00    0.00 -99.000 -99.000 -99.000   1.600   1.221   0.630   0.885   0.574   0.274   0.226   0.291   0.221   0.610   0.000   0.000
 2022 136    16  26.40  29.10   7.40 -99.000   6.892   0.000   6.892   6.892   0.000   6.892   0.000   0.000   77.78   73.94    0.00   73.94    0.00    0.00 -99.000 -99.000 -99.000   1.642   1.258   0.650   0.912   0.621   0.282   0.258   0.351   0.256   0.662   0.000   0.000
 2022 137    17  23.00  28.60  15.30 -99.000   6.351   0.000   6.351   6.351   0.000   6.351   0.000   0.000   84.13   80.29    0.00   80.29    0.00    0.00 -99.000 -99.000 -99.000   1.483   1.136   0.587   0.825   0.564   0.255   0.233   0.362   0.263   0.643   0.000   0.000
 2022 138    18  27.10  29.60  10.40 -99.000   7.291   0.018   7.273   7.291   0.018   7.273   0.000   0.000   91.42   87.59    0.02   87.57    0.00    0.00 -99.000 -99.000 -99.000   1.673   1.279   0.660   0.927   0.634   0.287   0.262   0.438   0.328   0.786   0.002   0.109
 2022 139    19  21.40  31.40   8.80 -99.000   5.798   0.027   5.771   5.798   0.027   5.771   0.000   0.000   97.22   93.38    0.05   93.34    0.00    0.00 -99.000 -99.000 -99.000   1.303   0.999   0.516   0.725   0.496   0.224   0.205   0.358   0.277   0.668   0.003   0.113
 2022 140    20   8.10  11.90   6.80 -99.000   1.663   0.012   1.652   1.663   0.012   1.652   0.000   0.000   98.88   95.05    0.06   94.99    0.00    0.00 -99.000 -99.000 -99.000   0.370   0.282   0.146   0.204   0.140   0.063   0.058   0.103   0.082   0.203   0.001   0.119
 2022 141    21  14.20  13.80  -0.60 -99.000   2.786   0.020   2.766   2.786   0.020   2.766   0.000   0.000  101.67   97.83    0.08   97.76    0.00    0.00 -99.000 -99.000 -99.000   0.622   0.466   0.240   0.336   0.229   0.104   0.095   0.174   0.143   0.359   0.002   0.119
 2022 142    22  19.60  17.40  -3.30 -99.000   3.961   0.017   3.944   3.961   0.017   3.944   0.000   0.000  105.63  101.79    0.09  101.70    0.00    0.00 -99.000 -99.000 -99.000   0.871   0.656   0.337   0.473   0.323   0.146   0.133   0.247   0.214   0.544   0.002   0.121
 2022 143    23   4.20  12.30   7.10 -99.000   0.874   0.001   0.873   0.874   0.001   0.873   0.000   0.000  106.50  102.67    0.09  102.57    0.00    0.00 -99.000 -99.000 -99.000   0.189   0.143   0.074   0.103   0.071   0.032   0.029   0.054   0.048   0.130   0.000   0.124
 2022 144    24   8.60  13.00   6.60 -99.000   1.799   0.002   1.798   1.799   0.002   1.798   0.000   0.000  108.30  104.47    0.10  104.37    0.00    0.00 -99.000 -99.000 -99.000   0.390   0.292   0.150   0.210   0.143   0.065   0.059   0.110   0.096   0.283   0.000   0.123
 2022 145    25  26.50  19.00   7.70 -99.000   6.112   0.008   6.104   6.112   0.008   6.104   0.000   0.000  114.42  110.58    0.10  110.47    0.00    0.00 -99.000 -99.000 -99.000   1.316   0.987   0.507   0.711   0.485   0.219   0.200   0.371   0.327   0.981   0.001   0.122
 2022 146    26  28.80  27.30   3.70 -99.000   7.138   0.018   7.121   7.138   0.018   7.121   0.000   0.000  121.55  117.72    0.12  117.60    0.00    0.00 -99.000 -99.000 -99.000   1.508   1.150   0.593   0.833   0.569   0.257   0.235   0.436   0.384   1.156   0.002   0.124
 2022 147    27  27.00  32.90   6.80 -99.000   7.337   0.031   7.306   7.337   0.031   7.306   0.000   0.000  128.89  125.05    0.15  124.90    0.00    0.00 -99.000 -99.000 -99.000   1.543   1.180   0.609   0.855   0.585   0.265   0.241   0.448   0.392   1.188   0.003   0.128
 2022 148    28  23.90  31.00  11.00 -99.000   6.557   0.048   6.508   6.557   0.048   6.508   0.000   0.000  135.45  131.61    0.20  131.41    0.00    0.00 -99.000 -99.000 -99.000   1.374   1.051   0.543   0.763   0.521   0.236   0.215   0.399   0.347   1.059   0.005   0.134
 2022 149    29  21.10  28.30  15.00 -99.000   5.779   0.103   5.675   5.779   0.103   5.675   0.000   0.000  141.23  137.39    0.30  137.08    0.00    0.00 -99.000 -99.000 -99.000   1.202   0.917   0.473   0.665   0.454   0.205   0.187   0.348   0.301   0.922   0.010   0.145
 2022 150    30  16.50  18.60  10.60 -99.000   3.854   0.114   3.740   3.854   0.114   3.740   0.000   0.000  145.08  141.24    0.42  140.82    0.00    0.00 -99.000 -99.000 -99.000   0.794   0.604   0.312   0.437   0.299   0.135   0.123   0.229   0.200   0.607   0.011   0.170
 2022 151    31  15.50  20.40   8.40 -99.000   3.640   0.128   3.511   3.639   0.128   3.511   0.000   0.000  148.72  144.88    0.55  144.34    0.00    0.00 -99.000 -99.000 -99.000   0.750   0.567   0.292   0.410   0.280   0.126   0.115   0.214   0.188   0.568   0.013   0.193
 2022 152    32  20.60  20.00   8.60 -99.000   4.814   0.199   4.613   4.812   0.199   4.613   0.000   0.000  153.53  149.69    0.75  148.95    0.00    0.00 -99.000 -99.000 -99.000   0.987   0.745   0.384   0.538   0.368   0.166   0.152   0.281   0.248   0.746   0.020   0.219
 2022 153    33  23.50  24.20   5.00 -99.000   5.612   0.268   5.343   5.610   0.268   5.343   0.000   0.000  159.15  155.30    1.01  154.29    0.00    0.00 -99.000 -99.000 -99.000   1.137   0.862   0.445   0.624   0.426   0.193   0.176   0.326   0.287   0.866   0.027   0.263
 2022 154    34  24.50  25.90   7.70 -99.000   6.105   0.338   5.765   6.103   0.338   5.765   0.000   0.000  165.25  161.41    1.35  160.06    0.00    0.00 -99.000 -99.000 -99.000   1.224   0.930   0.480   0.674   0.461   0.208   0.190   0.353   0.310   0.935   0.034   0.319
 2022 155    35  25.90  30.40  11.20 -99.000   6.990   0.457   6.531   6.988   0.457   6.531   0.000   0.000  172.24  168.39    1.81  166.59    0.00    0.00 -99.000 -99.000 -99.000   1.384   1.053   0.544   0.764   0.522   0.236   0.215   0.400   0.352   1.061   0.046   0.379
 2022 156    36  19.80  29.30  12.60 -99.000   5.310   0.427   4.881   5.308   0.427   4.881   0.000   0.000  177.55  173.70    2.23  171.47    0.00    0.00 -99.000 -99.000 -99.000   1.031   0.787   0.407   0.572   0.391   0.177   0.161   0.299   0.262   0.794   0.043   0.441
 2022 157    37  27.20  29.20  14.10 -99.000   7.364   0.698   6.662   7.360   0.698   6.662   0.000   0.000  184.92  181.06    2.93  178.13    0.00    0.00 -99.000 -99.000 -99.000   1.417   1.075   0.554   0.779   0.532   0.241   0.220   0.407   0.357   1.081   0.070   0.488
 2022 158    38   9.40  23.50  11.40 -99.000   2.311   0.256   2.054   2.310   0.256   2.054   0.000   0.000  187.23  183.37    3.19  180.18    0.00    0.00 -99.000 -99.000 -99.000   0.433   0.331   0.171   0.241   0.165   0.074   0.068   0.126   0.111   0.334   0.026   0.551
 2022 159    39  29.80  24.90  11.00 -99.000   7.447   0.888   6.553   7.441   0.888   6.553   0.000   0.000  194.67  190.81    4.08  186.74    0.00    0.00 -99.000 -99.000 -99.000   1.409   1.058   0.544   0.763   0.521   0.236   0.215   0.399   0.351   1.057   0.089   0.557
 2022 160    40  17.90  26.70  15.10 -99.000   4.695   0.613   4.078   4.691   0.613   4.078   0.000   0.000  199.37  195.50    4.69  190.81    0.00    0.00 -99.000 -99.000 -99.000   0.860   0.657   0.339   0.478   0.327   0.148   0.135   0.250   0.219   0.664   0.061   0.604
 2022 161    41  26.20  29.60  13.10 -99.000   7.026   0.897   6.125   7.021   0.897   6.125   0.000   0.000  206.40  202.53    5.59  196.94    0.00    0.00 -99.000 -99.000 -99.000   1.306   0.988   0.509   0.715   0.489   0.221   0.202   0.374   0.328   0.993   0.090   0.669
 2022 162    42  27.30  32.70  19.40 -99.000   7.923   0.977   6.942   7.919   0.977   6.942   0.000   0.000  214.32  210.45    6.56  203.88    0.00    0.00 -99.000 -99.000 -99.000   1.467   1.118   0.578   0.813   0.556   0.252   0.230   0.426   0.372   1.130   0.098   0.717
 2022 163    43  26.90  34.60  18.80 -99.000   7.928   0.960   6.964   7.924   0.960   6.964   0.000   0.000  222.25  218.37    7.52  210.84    0.00    0.00 -99.000 -99.000 -99.000   1.468   1.122   0.580   0.817   0.559   0.253   0.231   0.427   0.371   1.136   0.096   0.769
 2022 164    44  27.40  41.20  21.10 -99.000  11.237   1.346   9.886  11.232   1.346   9.886   0.000   0.000  233.48  229.60    8.87  220.73    0.00    0.00 -99.000 -99.000 -99.000   2.086   1.595   0.824   1.161   0.794   0.359   0.328   0.603   0.523   1.612   0.135   0.817
 2022 165    45  27.30  30.00  18.10 -99.000   7.592   0.908   6.680   7.588   0.908   6.680   0.000   0.000  241.08  237.19    9.78  227.41    0.00    0.00 -99.000 -99.000 -99.000   1.396   1.080   0.559   0.790   0.539   0.245   0.224   0.401   0.351   1.096   0.091   0.864
 2022 166    46  29.00  30.60  14.00 -99.000   7.910   0.942   6.963   7.905   0.942   6.963   0.000   0.000  248.99  245.09   10.72  234.37    0.00    0.00 -99.000 -99.000 -99.000   1.478   1.128   0.583   0.820   0.559   0.254   0.232   0.415   0.361   1.133   0.094   0.913
 2022 167    47  28.90  31.60  11.20 -99.000   7.800   0.935   6.861   7.795   0.935   6.861   0.000   0.000  256.79  252.89   11.65  241.23    0.00    0.00 -99.000 -99.000 -99.000   1.454   1.112   0.574   0.809   0.553   0.250   0.228   0.411   0.354   1.115   0.093   0.969
 2022 168    48  27.80  38.90  19.80 -99.000  10.151   1.224   8.923  10.146   1.224   8.923   0.000   0.000  266.94  263.04   12.88  250.16    0.00    0.00 -99.000 -99.000 -99.000   1.892   1.446   0.747   1.051   0.719   0.326   0.297   0.538   0.461   1.447   0.122   1.032
 2022 169    49  28.20  37.20  24.40 -99.000   9.707   1.256   8.446   9.703   1.256   8.446   0.000   0.000  276.64  272.74   14.13  258.60    0.00    0.00 -99.000 -99.000 -99.000   1.777   1.369   0.708   0.999   0.684   0.310   0.283   0.506   0.437   1.374   0.126   1.084
 2022 170    50  26.40  36.60  24.50 -99.000   8.798   1.250   7.543   8.793   1.250   7.543   0.000   0.000  285.44  281.53   15.38  266.15    0.00    0.00 -99.000 -99.000 -99.000   1.593   1.224   0.633   0.893   0.611   0.277   0.253   0.448   0.387   1.223   0.125   1.138
 2022 171    51  21.80  36.60  23.00 -99.000   7.178   1.123   6.051   7.174   1.123   6.051   0.000   0.000  292.62  288.70   16.51  272.20    0.00    0.00 -99.000 -99.000 -99.000   1.284   0.983   0.508   0.716   0.490   0.222   0.203   0.359   0.309   0.977   0.112   1.188
 2022 172    52  16.70  27.20  12.00 -99.000   4.267   0.719   3.543   4.263   0.719   3.543   0.000   0.000  296.89  292.97   17.23  275.74    0.00    0.00 -99.000 -99.000 -99.000   0.756   0.576   0.297   0.419   0.286   0.130   0.118   0.211   0.181   0.569   0.072   1.224
 2022 173    53  23.10  30.80   9.10 -99.000   6.034   1.037   4.991   6.028   1.037   4.991   0.000   0.000  302.92  299.00   18.26  280.73    0.00    0.00 -99.000 -99.000 -99.000   1.074   0.810   0.417   0.586   0.401   0.181   0.165   0.302   0.256   0.797   0.104   1.267
 2022 174    54  28.80  35.40  18.20 -99.000   8.594   1.518   7.069   8.587   1.518   7.069   0.000   0.000  311.52  307.58   19.78  287.80    0.00    0.00 -99.000 -99.000 -99.000   1.506   1.144   0.590   0.830   0.567   0.257   0.234   0.435   0.370   1.136   0.152   1.332
 2022 175    55  23.10  31.90  19.40 -99.000   6.545   1.233   5.307   6.539   1.233   5.307   0.000   0.000  318.06  314.12   21.01  293.11    0.00    0.00 -99.000 -99.000 -99.000   1.120   0.857   0.443   0.624   0.427   0.193   0.177   0.325   0.281   0.860   0.123   1.405
 2022 176    56  22.80  24.90  15.30 -99.000   5.785   1.150   4.629   5.778   1.150   4.629   0.000   0.000  323.85  319.90   22.16  297.74    0.00    0.00 -99.000 -99.000 -99.000   0.984   0.748   0.386   0.543   0.371   0.168   0.153   0.282   0.243   0.749   0.115   1.456
 2022 177    57  21.10  24.40   7.80 -99.000   5.001   1.011   3.983   4.994   1.011   3.983   0.000   0.000  328.85  324.89   23.18  301.72    0.00    0.00 -99.000 -99.000 -99.000   0.848   0.643   0.332   0.466   0.319   0.144   0.132   0.244   0.210   0.645   0.101   1.530
 2022 178    58  28.70  29.30  13.40 -99.000   7.563   1.523   6.032   7.555   1.523   6.032   0.000   0.000  336.41  332.45   24.70  307.75    0.00    0.00 -99.000 -99.000 -99.000   1.287   0.973   0.501   0.705   0.482   0.218   0.199   0.369   0.321   0.977   0.152   1.607
 2022 179    59  26.10  35.00  12.80 -99.000   7.275   1.488   5.780   7.268   1.488   5.780   0.000   0.000  343.69  339.72   26.19  313.53    0.00    0.00 -99.000 -99.000 -99.000   1.222   0.931   0.481   0.677   0.463   0.210   0.191   0.354   0.309   0.942   0.149   1.704
 2022 180    60  24.30  38.10  19.80 -99.000   8.374   1.762   6.605   8.367   1.762   6.605   0.000   0.000  352.06  348.08   27.95  320.14    0.00    0.00 -99.000 -99.000 -99.000   1.399   1.065   0.549   0.774   0.529   0.240   0.219   0.403   0.351   1.076   0.176   1.777
 2022 181    61  20.00  34.10  19.90 -99.000   5.784   1.270   4.509   5.779   1.270   4.509   0.000   0.000  357.84  353.86   29.22  324.64    0.00    0.00 -99.000 -99.000 -99.000   0.952   0.727   0.376   0.529   0.362   0.164   0.150   0.274   0.238   0.736   0.127   1.821
 2022 182    62  21.10  30.70  17.70 -99.000   5.798   1.315   4.476   5.792   1.315   4.476   0.000   0.000  363.64  359.65   30.53  329.12    0.00    0.00 -99.000 -99.000 -99.000   0.954   0.723   0.373   0.524   0.358   0.162   0.148   0.272   0.235   0.727   0.132   1.846
 2022 183    63  23.20  28.40  15.90 -99.000   6.124   1.411   4.706   6.117   1.411   4.706   0.000   0.000  369.77  365.77   31.94  333.83    0.00    0.00 -99.000 -99.000 -99.000   1.002   0.759   0.391   0.550   0.376   0.170   0.155   0.288   0.250   0.764   0.141   1.890
 2022 184    64  24.00  34.50  20.60 -99.000   7.001   1.623   5.372   6.994   1.623   5.372   0.000   0.000  376.77  372.77   33.57  339.20    0.00    0.00 -99.000 -99.000 -99.000   1.141   0.865   0.446   0.628   0.429   0.194   0.177   0.329   0.290   0.873   0.162   1.954
 2022 185    65  25.80  37.00  19.40 -99.000   8.340   1.970   6.362   8.332   1.970   6.362   0.000   0.000  385.11  381.10   35.54  345.56    0.00    0.00 -99.000 -99.000 -99.000   1.348   1.024   0.529   0.744   0.509   0.230   0.210   0.390   0.341   1.035   0.197   1.996
 2022 186    66  24.40  36.90  19.90 -99.000   7.855   1.895   5.952   7.847   1.895   5.952   0.000   0.000  392.96  388.94   37.43  351.51    0.00    0.00 -99.000 -99.000 -99.000   1.255   0.958   0.494   0.697   0.477   0.216   0.197   0.366   0.321   0.971   0.189   2.044
 2022 187    67  14.10  28.80  18.80 -99.000   3.801   0.935   2.861   3.797   0.935   2.861   0.000   0.000  396.76  392.74   38.37  354.37    0.00    0.00 -99.000 -99.000 -99.000   0.605   0.460   0.238   0.335   0.229   0.104   0.095   0.176   0.154   0.466   0.094   2.078
 2022 188    68  20.90  27.70  20.40 -99.000   5.649   1.393   4.249   5.642   1.393   4.249   0.000   0.000  402.41  398.38   39.76  358.62    0.00    0.00 -99.000 -99.000 -99.000   0.910   0.685   0.353   0.495   0.338   0.153   0.140   0.259   0.228   0.687   0.139   2.075
 2022 189    69  27.30  31.70  18.70 -99.000   7.601   1.901   5.691   7.592   1.901   5.691   0.000   0.000  410.01  405.98   41.66  364.31    0.00    0.00 -99.000 -99.000 -99.000   1.211   0.917   0.472   0.665   0.454   0.206   0.188   0.348   0.306   0.924   0.190   2.075
 2022 190    70  27.10  36.40  19.60 -99.000   8.463   2.151   6.302   8.454   2.151   6.302   0.000   0.000  418.48  414.43   43.81  370.62    0.00    0.00 -99.000 -99.000 -99.000   1.333   1.015   0.524   0.738   0.505   0.229   0.209   0.386   0.338   1.027   0.215   2.080
 2022 191    71  27.40  37.80  22.30 -99.000   9.354   2.396   6.949   9.345   2.396   6.949   0.000   0.000  427.83  423.77   46.21  377.57    0.00    0.00 -99.000 -99.000 -99.000   1.467   1.119   0.578   0.815   0.558   0.252   0.230   0.426   0.371   1.135   0.240   2.086
 2022 192    72  27.80  27.70  15.10 -99.000   7.171   1.836   5.325   7.161   1.836   5.325   0.000   0.000  435.00  430.94   48.04  382.89    0.00    0.00 -99.000 -99.000 -99.000   1.122   0.858   0.443   0.626   0.428   0.194   0.177   0.323   0.282   0.871   0.184   2.091
 2022 193    73  26.80  30.50  12.60 -99.000   7.024   1.774   5.241   7.014   1.774   5.241   0.000   0.000  442.03  437.95   49.82  388.13    0.00    0.00 -99.000 -99.000 -99.000   1.114   0.846   0.437   0.615   0.421   0.190   0.174   0.317   0.275   0.853   0.177   2.148
 2022 194    74  25.00  36.10  17.90 -99.000   7.608   1.892   5.707   7.599   1.892   5.707   0.000   0.000  449.63  445.55   51.71  393.84    0.00    0.00 -99.000 -99.000 -99.000   1.213   0.921   0.475   0.669   0.458   0.207   0.189   0.347   0.299   0.928   0.189   2.198
 2022 195    75  29.30  38.90  22.10 -99.000  10.577   2.610   7.956  10.567   2.610   7.956   0.000   0.000  460.21  456.12   54.32  401.79    0.00    0.00 -99.000 -99.000 -99.000   1.688   1.284   0.663   0.934   0.639   0.289   0.264   0.485   0.417   1.295   0.261   2.200
 2022 196    76  27.20  34.70  17.50 -99.000   7.726   1.898   5.819   7.717   1.898   5.819   0.000   0.000  467.94  463.83   56.22  407.61    0.00    0.00 -99.000 -99.000 -99.000   1.224   0.940   0.486   0.686   0.469   0.213   0.194   0.349   0.304   0.953   0.190   2.207
 2022 197    77  20.10  34.50  19.70 -99.000   5.804   1.415   4.383   5.798   1.415   4.383   0.000   0.000  473.74  469.63   57.63  412.00    0.00    0.00 -99.000 -99.000 -99.000   0.932   0.710   0.366   0.516   0.352   0.160   0.146   0.261   0.227   0.713   0.141   2.215
 2022 198    78  27.40  34.10  17.00 -99.000   7.751   1.858   5.884   7.742   1.858   5.884   0.000   0.000  481.49  477.37   59.49  417.88    0.00    0.00 -99.000 -99.000 -99.000   1.258   0.953   0.491   0.691   0.472   0.214   0.195   0.354   0.303   0.952   0.186   2.216
 2022 199    79  28.30  38.90  19.40 -99.000  10.054   2.387   7.658  10.044   2.387   7.658   0.000   0.000  491.55  487.42   61.88  425.54    0.00    0.00 -99.000 -99.000 -99.000   1.625   1.238   0.639   0.900   0.616   0.279   0.254   0.466   0.398   1.243   0.239   2.229
 2022 200    80  29.20  34.60  15.30 -99.000   8.178   1.926   6.243   8.169   1.926   6.243   0.000   0.000  499.72  495.59   63.81  431.78    0.00    0.00 -99.000 -99.000 -99.000   1.317   1.009   0.522   0.737   0.504   0.228   0.208   0.375   0.325   1.018   0.193   2.234
 2022 201    81  28.10  34.20  13.20 -99.000   7.736   1.805   5.922   7.727   1.805   5.922   0.000   0.000  507.46  503.31   65.61  437.70    0.00    0.00 -99.000 -99.000 -99.000   1.259   0.959   0.495   0.698   0.477   0.216   0.197   0.353   0.306   0.961   0.180   2.256
 2022 202    82  25.50  38.00  17.10 -99.000   8.544   1.975   6.560   8.535   1.975   6.560   0.000   0.000  516.00  511.85   67.59  444.26    0.00    0.00 -99.000 -99.000 -99.000   1.391   1.059   0.547   0.770   0.527   0.239   0.218   0.397   0.346   1.066   0.198   2.278
 2022 203    83  27.40  34.80  19.40 -99.000   7.938   1.820   6.110   7.930   1.820   6.110   0.000   0.000  523.94  519.78   69.41  450.37    0.00    0.00 -99.000 -99.000 -99.000   1.289   0.984   0.508   0.716   0.490   0.222   0.203   0.372   0.327   0.998   0.182   2.281
 2022 204    84  23.60  36.20  23.40 -99.000   7.534   1.665   5.862   7.527   1.665   5.862   0.000   0.000  531.48  527.30   71.07  456.23    0.00    0.00 -99.000 -99.000 -99.000   1.241   0.946   0.488   0.688   0.470   0.213   0.194   0.355   0.310   0.957   0.167   2.282
 2022 205    85  24.80  28.80  17.20 -99.000   6.657   1.417   5.233   6.649   1.417   5.233   0.000   0.000  538.13  533.95   72.49  461.47    0.00    0.00 -99.000 -99.000 -99.000   1.110   0.845   0.436   0.614   0.420   0.190   0.174   0.316   0.275   0.853   0.142   2.281
 2022 206    86   5.60  22.10  18.10 -99.000   1.403   0.288   1.114   1.402   0.288   1.114   0.000   0.000  539.54  535.36   72.78  462.58    0.00    0.00 -99.000 -99.000 -99.000   0.237   0.180   0.093   0.130   0.089   0.040   0.037   0.068   0.059   0.181   0.029   2.280
 2022 207    87  15.30  27.40  17.90 -99.000   4.089   0.808   3.277   4.085   0.808   3.277   0.000   0.000  543.62  539.44   73.58  465.86    0.00    0.00 -99.000 -99.000 -99.000   0.708   0.529   0.272   0.381   0.260   0.118   0.107   0.199   0.175   0.528   0.081   2.269
 2022 208    88  16.60  28.80  13.60 -99.000   4.369   0.832   3.533   4.365   0.832   3.533   0.000   0.000  547.99  543.81   74.41  469.39    0.00    0.00 -99.000 -99.000 -99.000   0.756   0.570   0.293   0.412   0.281   0.127   0.116   0.216   0.190   0.572   0.083   2.264
 2022 209    89  18.40  24.40  15.60 -99.000   4.678   0.859   3.814   4.673   0.859   3.814   0.000   0.000  552.67  548.48   75.27  473.20    0.00    0.00 -99.000 -99.000 -99.000   0.815   0.615   0.317   0.445   0.304   0.138   0.125   0.233   0.205   0.617   0.086   2.258
 2022 210    90  15.40  25.90  16.40 -99.000   4.016   0.711   3.301   4.012   0.711   3.301   0.000   0.000  556.69  552.49   75.98  476.51    0.00    0.00 -99.000 -99.000 -99.000   0.705   0.532   0.274   0.385   0.263   0.119   0.109   0.202   0.177   0.535   0.071   2.253
 2022 211    91  27.20  28.70  15.30 -99.000   7.276   1.243   6.027   7.270   1.243   6.027   0.000   0.000  563.96  559.76   77.23  482.53    0.00    0.00 -99.000 -99.000 -99.000   1.289   0.972   0.501   0.703   0.480   0.217   0.198   0.368   0.324   0.975   0.124   2.247
 2022 212    92  21.80  33.20  17.70 -99.000   6.229   1.027   5.197   6.224   1.027   5.197   0.000   0.000  570.19  565.98   78.25  487.73    0.00    0.00 -99.000 -99.000 -99.000   1.100   0.838   0.432   0.608   0.416   0.188   0.172   0.318   0.278   0.846   0.103   2.246
 2022 213    93  25.60  37.30  15.00 -99.000   8.299   1.321   6.972   8.293   1.321   6.972   0.000   0.000  578.49  574.28   79.58  494.70    0.00    0.00 -99.000 -99.000 -99.000   1.481   1.124   0.580   0.815   0.557   0.252   0.230   0.427   0.372   1.133   0.132   2.242
 2022 214    94  24.00  38.90  19.30 -99.000   8.671   1.333   7.333   8.665   1.333   7.333   0.000   0.000  587.16  582.94   80.91  502.04    0.00    0.00 -99.000 -99.000 -99.000   1.546   1.182   0.610   0.859   0.588   0.266   0.243   0.451   0.392   1.196   0.133   2.241
 2022 215    95  25.50  33.20  18.40 -99.000   7.339   1.088   6.245   7.334   1.088   6.245   0.000   0.000  594.50  590.28   82.00  508.28    0.00    0.00 -99.000 -99.000 -99.000   1.317   1.007   0.521   0.733   0.501   0.227   0.207   0.381   0.332   1.020   0.109   2.241
 2022 216    96  25.50  34.60  16.20 -99.000   7.352   1.052   6.296   7.347   1.052   6.296   0.000   0.000  601.85  597.62   83.05  514.58    0.00    0.00 -99.000 -99.000 -99.000   1.334   1.017   0.525   0.738   0.505   0.229   0.209   0.382   0.332   1.025   0.105   2.269
 2022 217    97  25.10  37.50  22.10 -99.000   8.656   1.196   7.455   8.651   1.196   7.455   0.000   0.000  610.51  606.27   84.24  522.03    0.00    0.00 -99.000 -99.000 -99.000   1.580   1.205   0.622   0.875   0.598   0.271   0.247   0.454   0.391   1.213   0.120   2.298
 2022 218    98  21.70  30.30  21.50 -99.000   6.209   0.828   5.377   6.205   0.828   5.377   0.000   0.000  616.72  612.48   85.07  527.41    0.00    0.00 -99.000 -99.000 -99.000   1.135   0.869   0.449   0.632   0.432   0.196   0.179   0.326   0.282   0.877   0.083   2.332
 2022 219    99   7.20  22.30  14.20 -99.000   1.782   0.229   1.551   1.780   0.229   1.551   0.000   0.000  618.50  614.26   85.30  528.96    0.00    0.00 -99.000 -99.000 -99.000   0.330   0.251   0.129   0.182   0.124   0.056   0.051   0.094   0.081   0.251   0.023   2.352
 2022 220   100  26.10  30.70   8.50 -99.000   6.849   0.853   5.990   6.844   0.853   5.990   0.000   0.000  625.35  621.10   86.15  534.95    0.00    0.00 -99.000 -99.000 -99.000   1.293   0.968   0.498   0.698   0.476   0.215   0.197   0.364   0.316   0.964   0.085   2.352
 2022 221   101  25.50  34.70  16.50 -99.000   7.414   0.895   6.515   7.410   0.895   6.515   0.000   0.000  632.76  628.51   87.05  541.46    0.00    0.00 -99.000 -99.000 -99.000   1.379   1.051   0.542   0.762   0.521   0.236   0.215   0.399   0.350   1.060   0.090   2.382
 2022 222   102  25.70  36.20  15.80 -99.000   7.969   0.932   7.033   7.965   0.932   7.033   0.000   0.000  640.73  636.48   87.98  548.50    0.00    0.00 -99.000 -99.000 -99.000   1.487   1.134   0.586   0.824   0.563   0.255   0.233   0.431   0.375   1.145   0.093   2.411
 2022 223   103  24.80  36.00  15.30 -99.000   7.582   0.859   6.718   7.578   0.859   6.718   0.000   0.000  648.31  644.06   88.84  555.21    0.00    0.00 -99.000 -99.000 -99.000   1.419   1.084   0.560   0.788   0.539   0.244   0.223   0.410   0.356   1.095   0.086   2.439