*N2O emissions output file

*DSSAT Cropping System Model Ver. 4.8.2.000 -release  SEP 04, 2025 19:41:23

*RUN   1        : farm_23                   MZCER048 UNLI2309    1
 MODEL          : MZCER048 - Maize
 EXPERIMENT     : UNLI2309 MZ PIO1366
 DATA PATH      :
 TREATMENT  1   : farm_23                   MZCER048
  
!              |------------------------------ Cumulative -----------------------------|------------------------------ Daily ----------------------------------|
!               N2Oemit  N2emit  NOemit   Denit  Nitrif   N2O-denit+nit      N2      NO N2Oemit  N2emit  NOemit   Denit  Nitrif   N2O-denit+nit      N2      NO   Denitrification (g[N]/ha) by soil depth (cm):                                   Nitrification (g[N]/ha) by soil depth (cm):                                     N2O flux (g[N]/ha) by soil depth (cm):                                          N2 flux (g[N]/ha) by soil depth (cm):                                           NO flux (g[N]/ha) by soil depth (cm):
!                 kg/ha   kg/ha   kg/ha   kg/ha   kg/ha   kg/ha   kg/ha   kg/ha   kg/ha    g/ha    g/ha    g/ha    g/ha    g/ha    g/ha    g/ha    g/ha    g/ha     0-5    5-15   15-23   23-31   31-46   46-61   61-91  91-106 106-122 122-183     0-5    5-15   15-23   23-31   31-46   46-61   61-91  91-106 106-122 122-183     0-5    5-15   15-23   23-31   31-46   46-61   61-91  91-106 106-122 122-183     0-5    5-15   15-23   23-31   31-46   46-61   61-91  91-106 106-122 122-183     0-5    5-15   15-23   23-31   31-46   46-61   61-91  91-106 106-122 122-183
@YEAR DOY   DAS   N2OEC    N2EC    NOEC    NDNC    NITC   N2ODC   N2ONC   N2FLC   NOFLC  N2OGED   N2GED   NOGED    NDND   NITRD   N2ODD   N2OND   N2FLD   NOFLD   NDN1D   NDN2D   NDN3D   NDN4D   NDN5D   NDN6D   NDN7D   NDN8D   NDN9D   NDN10   NIT1D   NIT2D   NIT3D   NIT4D   NIT5D   NIT6D   NIT7D   NIT8D   NIT9D   NIT10   N2O1D   N2O2D   N2O3D   N2O4D   N2O5D   N2O6D   N2O7D   N2O8D   N2O9D   N2O10   N2F1D   N2F2D   N2F3D   N2F4D   N2F5D   N2F6D   N2F7D   N2F8D   N2F9D   N2F10   NOF1D   NOF2D   NOF3D   NOF4D   NOF5D   NOF6D   NOF7D   NOF8D   NOF9D   NOF10
 2020 110     1    0.00    0.00    0.00    0.00     0.2   0.000   0.000   0.000   0.002     0.0     0.0     0.0     0.0     243    0.00    0.24    0.00    2.32     0.0     0.0     0.0     0.0     0.0     0.0     0.0     0.0     0.0     0.0      6.     12.      9.      9.     18.     17.     44.     22.     23.     42.     0.0     0.0     0.0     0.0     0.0     0.0     0.0     0.0     0.0     0.0     0.0     0.0     0.0     0.0     0.0     0.0     0.0     0.0     0.0     0.0     0.0     0.1     0.1     0.1     0.1     0.1     0.5     0.2     0.2     0.4
 2020 111     2    0.00    0.00    0.00    0.00     0.5   0.000   0.000   0.000   0.004     0.0     0.0     0.0     0.0     223    0.00    0.22    0.00    1.71     0.0     0.0     0.0     0.0     0.0     0.0     0.0     0.0     0.0     0.0      6.     12.      9.      9.     17.     16.     39.     19.     20.     37.     0.0     0.0     0.0     0.0     0.0     0.0     0.0     0.0     0.0     0.0     0.0     0.0     0.0     0.0     0.0     0.0     0.0     0.0     0.0     0.0     0.0     0.1     0.0     0.0     0.1     0.1     0.3     0.2     0.2     0.3
 2020 112     3    0.00    0.00    0.00    0.00     0.7   0.000   0.001   0.000   0.005     0.0     0.0     0.0     0.0     210    0.00    0.21    0.00    1.30     0.0     0.0     0.0     0.0     0.0     0.0     0.0     0.0     0.0     0.0      6.     12.      9.      9.     16.     16.     36.     18.     18.     34.     0.0     0.0     0.0     0.0     0.0     0.0     0.0     0.0     0.0     0.0     0.0     0.0     0.0     0.0     0.0     0.0     0.0     0.0     0.0     0.0     0.0     0.1     0.0     0.0     0.1     0.1     0.3     0.1     0.1     0.2
 2020 113     4    0.00    0.00    0.00    0.00     0.9   0.000   0.001   0.000   0.006     0.0     0.0     0.0     0.0     199    0.00    0.20    0.00    0.99     0.0     0.0     0.0     0.0     0.0     0.0     0.0     0.0     0.0     0.0      7.     13.     10.      9.     16.     15.     34.     16.     17.     31.     0.0     0.0     0.0     0.0     0.0     0.0     0.0     0.0     0.0     0.0     0.0     0.0     0.0     0.0     0.0     0.0     0.0     0.0     0.0     0.0     0.0     0.0     0.0     0.0     0.1     0.1     0.2     0.1     0.1     0.2
 2020 114     5    0.00    0.00    0.00    0.00     1.1   0.000   0.001   0.000   0.007     0.0     0.0     0.0     0.0     199    0.00    0.20    0.00    0.80     0.0     0.0     0.0     0.0     0.0     0.0     0.0     0.0     0.0     0.0      7.     14.     11.     10.     17.     16.     33.     16.     16.     30.     0.0     0.0     0.0     0.0     0.0     0.0     0.0     0.0     0.0     0.0     0.0     0.0     0.0     0.0     0.0     0.0     0.0     0.0     0.0     0.0     0.0     0.0     0.0     0.0     0.1     0.0     0.2     0.1     0.1     0.1
 2020 115     6    0.00    0.00    0.00    0.00     1.3   0.000   0.001   0.000   0.008     0.0     0.0     0.0     0.0     198    0.00    0.20    0.00    0.64     0.0     0.0     0.0     0.0     0.0     0.0     0.0     0.0     0.0     0.0      8.     16.     12.     11.     17.     16.     33.     15.     15.     28.     0.0     0.0     0.0     0.0     0.0     0.0     0.0     0.0     0.0     0.0     0.0     0.0     0.0     0.0     0.0     0.0     0.0     0.0     0.0     0.0     0.0     0.0     0.0     0.0     0.0     0.0     0.1     0.1     0.1     0.1
 2020 116     7    0.00    0.00    0.00    0.00     1.5   0.000   0.001   0.000   0.008     0.0     0.0     0.0     0.0     195    0.00    0.19    0.00    0.50     0.0     0.0     0.0     0.0     0.0     0.0     0.0     0.0     0.0     0.0      8.     17.     13.     12.     18.     17.     31.     14.     14.     26.     0.0     0.0     0.0     0.0     0.0     0.0     0.0     0.0     0.0     0.0     0.0     0.0     0.0     0.0     0.0     0.0     0.0     0.0     0.0     0.0     0.0     0.0     0.0     0.0     0.0     0.0     0.1     0.0     0.0     0.1
 2020 117     8    0.00    0.00    0.00    0.00     1.7   0.000   0.002   0.000   0.009     0.0     0.0     0.0     0.0     190    0.00    0.19    0.00    0.45     0.0     0.0     0.0     0.0     0.0     0.0     0.0     0.0     0.0     0.0     10.     18.     13.     12.     18.     16.     30.     13.     13.     23.     0.0     0.0     0.0     0.0     0.0     0.0     0.0     0.0     0.0     0.0     0.0     0.0     0.0     0.0     0.0     0.0     0.0     0.0     0.0     0.0     0.0     0.0     0.0     0.0     0.0     0.0     0.1     0.0     0.0     0.1
 2020 118     9    0.00    0.00    0.00    0.00     1.8   0.000   0.002   0.000   0.009     0.0     0.0     0.1     0.0     191    0.00    0.19    0.00    0.44     0.0     0.0     0.0     0.0     0.0     0.0     0.0     0.0     0.0     0.0     11.     19.     14.     13.     19.     17.     30.     12.     12.     22.     0.0     0.0     0.0     0.0     0.0     0.0     0.0     0.0     0.0     0.0     0.0     0.0     0.0     0.0     0.0     0.0     0.0     0.0     0.0     0.0     0.0     0.0     0.0     0.0     0.0     0.0     0.1     0.0     0.0     0.1
 2020 119    10    0.00    0.00    0.00    0.00     2.0   0.000   0.002   0.000   0.010     0.0     0.0     0.1     0.0     195    0.00    0.20    0.00    0.45     0.0     0.0     0.0     0.0     0.0     0.0     0.0     0.0     0.0     0.0     12.     21.     16.     15.     20.     18.     30.     12.     12.     21.     0.0     0.0     0.0     0.0     0.0     0.0     0.0     0.0     0.0     0.0     0.0     0.0     0.0     0.0     0.0     0.0     0.0     0.0     0.0     0.0     0.0     0.0     0.0     0.0     0.0     0.0     0.1     0.0     0.0     0.1
 2020 120    11    0.00    0.00    0.00    0.00     2.2   0.000   0.002   0.000   0.010     0.0     0.0     0.1     0.0     200    0.00    0.20    0.00    0.45     0.0     0.0     0.0     0.0     0.0     0.0     0.0     0.0     0.0     0.0     13.     23.     17.     16.     21.     19.     30.     11.     11.     20.     0.0     0.0     0.0     0.0     0.0     0.0     0.0     0.0     0.0     0.0     0.0     0.0     0.0     0.0     0.0     0.0     0.0     0.0     0.0     0.0     0.0     0.0     0.0     0.0     0.0     0.0     0.1     0.0     0.0     0.1
 2020 121    12    0.00    0.00    0.00    0.00     2.5   0.000   0.002   0.000   0.011     0.0     0.0     0.1     0.0     207    0.00    0.21    0.00    0.46     0.0     0.0     0.0     0.0     0.0     0.0     0.0     0.0     0.0     0.0     14.     25.     19.     17.     22.     20.     30.     11.     11.     19.     0.0     0.0     0.0     0.0     0.0     0.0     0.0     0.0     0.0     0.0     0.0     0.0     0.0     0.0     0.0     0.0     0.0     0.0     0.0     0.0     0.0     0.0     0.0     0.0     0.0     0.0     0.1     0.0     0.0     0.1
 2020 122    13    0.00    0.00    0.00    0.00     2.7   0.000   0.003   0.000   0.011     0.0     0.0     0.1     0.0     221    0.00    0.22    0.00    0.49     0.0     0.0     0.0     0.0     0.0     0.0     0.0     0.0     0.0     0.0     15.     28.     21.     19.     24.     22.     32.     11.     11.     19.     0.0     0.0     0.0     0.0     0.0     0.0     0.0     0.0     0.0     0.0     0.0     0.0     0.0     0.0     0.0     0.0     0.0     0.0     0.0     0.0     0.0     0.0     0.0     0.0     0.0     0.0     0.1     0.0     0.0     0.1
 2020 123    14    0.00    0.00    0.00    0.00     2.9   0.000   0.003   0.000   0.012     0.0     0.0     0.1     0.0     246    0.00    0.25    0.00    0.54     0.0     0.0     0.0     0.0     0.0     0.0     0.0     0.0     0.0     0.0     18.     33.     24.     23.     28.     25.     35.     11.     11.     19.     0.0     0.0     0.0     0.0     0.0     0.0     0.0     0.0     0.0     0.0     0.0     0.0     0.0     0.0     0.0     0.0     0.0     0.0     0.0     0.0     0.0     0.1     0.0     0.0     0.1     0.0     0.1     0.0     0.0     0.1
 2020 124    15    0.00    0.00    0.00    0.00     3.2   0.000   0.003   0.000   0.012     0.0     0.0     0.1     0.0     240    0.00    0.24    0.00    0.52     0.0     0.0     0.0     0.0     0.0     0.0     0.0     0.0     0.0     0.0     18.     33.     24.     23.     27.     24.     35.     11.     11.     18.     0.0     0.0     0.0     0.0     0.0     0.0     0.0     0.0     0.0     0.0     0.0     0.0     0.0     0.0     0.0     0.0     0.0     0.0     0.0     0.0     0.0     0.1     0.0     0.0     0.1     0.0     0.1     0.0     0.0     0.1
 2020 125    16    0.00    0.00    0.00    0.00     3.4   0.000   0.003   0.000   0.013     0.0     0.0     0.0     0.0     227    0.00    0.23    0.00    0.47     0.0     0.0     0.0     0.0     0.0     0.0     0.0     0.0     0.0     0.0     10.     29.     25.     23.     28.     25.     35.     10.     10.     17.     0.0     0.0     0.0     0.0     0.0     0.0     0.0     0.0     0.0     0.0     0.0     0.0     0.0     0.0     0.0     0.0     0.0     0.0     0.0     0.0     0.0     0.0     0.0     0.0     0.1     0.0     0.1     0.0     0.0     0.0
 2020 126    17    0.00    0.00    0.00    0.00     3.6   0.000   0.004   0.000   0.013     0.0     0.0     0.0     0.0     200    0.00    0.20    0.00    0.37     0.0     0.0     0.0     0.0     0.0     0.0     0.0     0.0     0.0     0.0     10.     20.     16.     19.     27.     24.     33.     10.     10.     16.     0.0     0.0     0.0     0.0     0.0     0.0     0.0     0.0     0.0     0.0     0.0     0.0     0.0     0.0     0.0     0.0     0.0     0.0     0.0     0.0     0.0     0.0     0.0     0.0     0.0     0.0     0.1     0.0     0.0     0.0
 2020 127    18    0.00    0.00    0.00    0.00     3.8   0.000   0.004   0.000   0.013     0.0     0.0     0.1     0.0     213    0.00    0.21    0.00    0.39     0.0     0.0     0.0     0.0     0.0     0.0     0.0     0.0     0.0     0.0     15.     27.     20.     20.     26.     23.     32.      9.      9.     15.     0.0     0.0     0.0     0.0     0.0     0.0     0.0     0.0     0.0     0.0     0.0     0.0     0.0     0.0     0.0     0.0     0.0     0.0     0.0     0.0     0.0     0.0     0.0     0.0     0.0     0.0     0.1     0.0     0.0     0.0
 2020 128    19    0.00    0.00    0.00    0.00     4.0   0.000   0.004   0.000   0.014     0.0     0.0     0.1     0.0     188    0.00    0.19    0.00    0.37     0.0     0.0     0.0     0.0     0.0     0.0     0.0     0.0     0.0     0.0     14.     25.     19.     18.     22.     20.     28.      8.      8.     13.     0.0     0.0     0.0     0.0     0.0     0.0     0.0     0.0     0.0     0.0     0.0     0.0     0.0     0.0     0.0     0.0     0.0     0.0     0.0     0.0     0.0     0.0     0.0     0.0     0.0     0.0     0.1     0.0     0.0     0.0
 2020 129    20    0.00    0.00    0.00    0.00     4.2   0.000   0.004   0.000   0.014     0.1     0.0     0.1     0.2     183    0.00    0.18    0.15    0.38     0.0     0.1     0.0     0.0     0.0     0.0     0.0     0.0     0.0     0.0     14.     26.     19.     18.     22.     20.     27.      7.      7.     12.     0.0     0.0     0.0     0.0     0.0     0.0     0.0     0.0     0.0     0.0     0.0     0.1     0.0     0.0     0.0     0.0     0.0     0.0     0.0     0.0     0.0     0.0     0.0     0.0     0.0     0.0     0.1     0.0     0.0     0.0
 2020 130    21    0.00    0.00    0.00    0.00     4.3   0.000   0.004   0.000   0.014     0.1     0.0     0.1     0.1     169    0.00    0.17    0.13    0.36     0.0     0.0     0.0     0.1     0.0     0.0     0.0     0.0     0.0     0.0     14.     24.     18.     16.     20.     18.     24.      7.      7.     11.     0.0     0.0     0.0     0.0     0.0     0.0     0.0     0.0     0.0     0.0     0.0     0.0     0.0     0.0     0.0     0.0     0.0     0.0     0.0     0.0     0.0     0.0     0.0     0.0     0.0     0.0     0.1     0.0     0.0     0.0
 2020 131    22    0.00    0.00    0.00    0.00     4.5   0.000   0.004   0.000   0.015     0.1     0.0     0.2     0.2     160    0.00    0.16    0.15    0.34     0.0     0.0     0.0     0.1     0.0     0.0     0.0     0.0     0.0     0.0     14.     23.     17.     16.     19.     17.     23.      6.      6.     10.     0.0     0.0     0.0     0.0     0.0     0.0     0.0     0.0     0.0     0.0     0.0     0.0     0.0     0.0     0.0     0.0     0.0     0.0     0.0     0.0     0.0     0.0     0.0     0.0     0.0     0.0     0.1     0.0     0.0     0.0
 2020 132    23    0.00    0.00    0.00    0.00     4.6   0.000   0.005   0.001   0.015     0.1     0.0     0.2     0.1     143    0.00    0.14    0.12    0.30     0.0     0.0     0.0     0.0     0.0     0.0     0.0     0.0     0.0     0.0     12.     22.     15.     14.     17.     15.     20.      5.      5.      9.     0.0     0.0     0.0     0.0     0.0     0.0     0.0     0.0     0.0     0.0     0.0     0.0     0.0     0.0     0.0     0.0     0.0     0.0     0.0     0.0     0.0     0.0     0.0     0.0     0.0     0.0     0.1     0.0     0.0     0.0
 2020 133    24    0.00    0.00    0.00    0.00     4.8   0.000   0.005   0.001   0.015     0.1     0.0     0.2     0.1     125    0.00    0.13    0.10    0.27     0.0     0.0     0.0     0.0     0.0     0.0     0.0     0.0     0.0     0.0     10.     19.     13.     12.     15.     13.     17.      5.      5.      8.     0.0     0.0     0.0     0.0     0.0     0.0     0.0     0.0     0.0     0.0     0.0     0.0     0.0     0.0     0.0     0.0     0.0     0.0     0.0     0.0     0.0     0.0     0.0     0.0     0.0     0.0     0.0     0.0     0.0     0.0
 2020 134    25    0.00    0.00    0.00    0.00     4.9   0.000   0.005   0.001   0.016     0.1     0.0     0.2     0.1     106    0.00    0.11    0.07    0.22     0.0     0.0     0.0     0.0     0.0     0.0     0.0     0.0     0.0     0.0      9.     16.     12.     10.     13.     11.     14.      4.      4.      6.     0.0     0.0     0.0     0.0     0.0     0.0     0.0     0.0     0.0     0.0     0.0     0.0     0.0     0.0     0.0     0.0     0.0     0.0     0.0     0.0     0.0     0.0     0.0     0.0     0.0     0.0     0.0     0.0     0.0     0.0
 2020 135    26    0.00    0.00    0.00    0.00     5.0   0.000   0.005   0.001   0.016     0.1     0.0     0.2     0.1     100    0.00    0.10    0.06    0.21     0.0     0.0     0.0     0.0     0.0     0.0     0.0     0.0     0.0     0.0      8.     16.     12.     10.     12.     11.     13.      4.      3.      6.     0.0     0.0     0.0     0.0     0.0     0.0     0.0     0.0     0.0     0.0     0.0     0.0     0.0     0.0     0.0     0.0     0.0     0.0     0.0     0.0     0.0     0.0     0.0     0.0     0.0     0.0     0.0     0.0     0.0     0.0
 2020 136    27    0.00    0.00    0.00    0.00     5.1   0.000   0.005   0.001   0.016     0.1     0.0     0.2     0.1     100    0.00    0.10    0.05    0.21     0.0     0.0     0.0     0.0     0.0     0.0     0.0     0.0     0.0     0.0      9.     16.     12.     10.     12.     11.     13.      3.      3.      6.     0.0     0.0     0.0     0.0     0.0     0.0     0.0     0.0     0.0     0.0     0.0     0.0     0.0     0.0     0.0     0.0     0.0     0.0     0.0     0.0     0.0     0.0     0.0     0.0     0.0     0.0     0.0     0.0     0.0     0.0
 2020 137    28    0.00    0.00    0.00    0.00     5.2   0.000   0.005   0.001   0.016     0.0     0.0     0.0     0.7      95    0.02    0.09    0.66    0.18     0.0     0.0     0.0     0.5     0.2     0.0     0.0     0.0     0.0     0.0      5.     14.     11.     11.     13.     12.     13.      3.      3.      6.     0.0     0.0     0.0     0.0     0.0     0.0     0.0     0.0     0.0     0.0     0.0     0.0     0.0     0.5     0.2     0.0     0.0     0.0     0.0     0.0     0.0     0.0     0.0     0.0     0.0     0.0     0.0     0.0     0.0     0.0
 2020 138    29    0.00    0.00    0.00    0.00     5.3   0.000   0.005   0.003   0.016     0.0     0.0     0.0     1.9     105    0.07    0.10    1.81    0.20     0.0     0.0     0.0     1.3     0.6     0.0     0.0     0.0     0.0     0.0      6.     15.     11.     11.     15.     13.     15.      4.      4.      6.     0.0     0.0     0.0     0.1     0.0     0.0     0.0     0.0     0.0     0.0     0.0     0.0     0.0     1.2     0.6     0.0     0.0     0.0     0.0     0.0     0.0     0.0     0.0     0.0     0.0     0.0     0.0     0.0     0.0     0.0
 2020 139    30    0.00    0.00    0.00    0.00     5.4   0.000   0.005   0.004   0.017     0.1     0.0     0.1     0.7     132    0.02    0.13    0.71    0.24     0.0     0.0     0.0     0.5     0.2     0.0     0.0     0.0     0.0     0.0     11.     21.     15.     15.     17.     15.     17.      4.      4.      7.     0.0     0.0     0.0     0.0     0.0     0.0     0.0     0.0     0.0     0.0     0.0     0.0     0.0     0.5     0.2     0.0     0.0     0.0     0.0     0.0     0.0     0.0     0.0     0.0     0.0     0.0     0.0     0.0     0.0     0.0
 2020 140    31    0.00    0.00    0.00    0.00     5.6   0.000   0.006   0.004   0.017     0.1     0.0     0.2     0.3     148    0.01    0.15    0.28    0.28     0.0     0.0     0.0     0.2     0.1     0.0     0.0     0.0     0.0     0.0     13.     24.     18.     16.     19.     16.     19.      5.      4.      7.     0.0     0.0     0.0     0.0     0.0     0.0     0.0     0.0     0.0     0.0     0.0     0.0     0.0     0.2     0.1     0.0     0.0     0.0     0.0     0.0     0.0     0.0     0.0     0.0     0.0     0.0     0.1     0.0     0.0     0.0
 2020 141    32    0.00    0.00    0.00    0.00     5.7   0.000   0.006   0.005   0.017     0.1     0.0     0.3     0.5     161    0.01    0.16    0.49    0.34     0.0     0.1     0.1     0.1     0.1     0.1     0.0     0.0     0.0     0.0     16.     26.     19.     18.     20.     17.     21.      5.      5.      8.     0.0     0.0     0.0     0.0     0.0     0.0     0.0     0.0     0.0     0.0     0.0     0.1     0.1     0.1     0.1     0.1     0.0     0.0     0.0     0.0     0.0     0.0     0.0     0.0     0.0     0.0     0.1     0.0     0.0     0.0
 2020 142    33    0.00    0.00    0.00    0.01     5.9   0.000   0.006   0.005   0.018     0.1     0.0     0.3     0.4     178    0.01    0.18    0.39    0.37     0.0     0.0     0.0     0.1     0.1     0.1     0.0     0.0     0.0     0.0     17.     29.     21.     19.     22.     19.     24.      6.      5.      9.     0.0     0.0     0.0     0.0     0.0     0.0     0.0     0.0     0.0     0.0     0.0     0.0     0.0     0.1     0.1     0.1     0.0     0.0     0.0     0.0     0.0     0.0     0.0     0.0     0.0     0.0     0.1     0.0     0.0     0.0
 2020 143    34    0.00    0.00    0.00    0.01     6.1   0.000   0.006   0.006   0.018     0.1     0.1     0.3     0.4     189    0.01    0.19    0.35    0.39     0.0     0.0     0.0     0.1     0.1     0.1     0.0     0.0     0.0     0.0     17.     32.     22.     20.     23.     20.     25.      6.      6.      9.     0.0     0.0     0.0     0.0     0.0     0.0     0.0     0.0     0.0     0.0     0.0     0.0     0.0     0.1     0.1     0.1     0.0     0.0     0.0     0.0     0.0     0.1     0.0     0.0     0.0     0.0     0.1     0.0     0.0     0.0
 2020 144    35    0.00    0.00    0.00    0.01     6.3   0.000   0.006   0.006   0.018     0.1     0.1     0.3     0.4     213    0.01    0.21    0.35    0.44     0.0     0.0     0.0     0.1     0.1     0.2     0.0     0.0     0.0     0.0     19.     36.     27.     23.     26.     23.     29.      7.      7.     10.     0.0     0.0     0.0     0.0     0.0     0.0     0.0     0.0     0.0     0.0     0.0     0.0     0.0     0.1     0.1     0.2     0.0     0.0     0.0     0.0     0.0     0.1     0.0     0.0     0.0     0.0     0.1     0.0     0.0     0.0
 2020 145    36    0.00    0.00    0.00    0.01     6.5   0.000   0.007   0.006   0.019     0.1     0.1     0.3     0.4     236    0.01    0.24    0.35    0.49     0.0     0.0     0.0     0.1     0.1     0.2     0.0     0.0     0.0     0.0     21.     39.     29.     25.     29.     25.     32.      8.      7.     12.     0.0     0.0     0.0     0.0     0.0     0.0     0.0     0.0     0.0     0.0     0.0     0.0     0.0     0.1     0.1     0.2     0.0     0.0     0.0     0.0     0.0     0.1     0.0     0.0     0.1     0.0     0.1     0.0     0.0     0.0
 2020 146    37    0.00    0.00    0.00    0.01     6.8   0.000   0.007   0.007   0.019     0.1     0.1     0.3     0.4     247    0.01    0.25    0.35    0.52     0.0     0.0     0.0     0.1     0.1     0.2     0.0     0.0     0.0     0.0     21.     40.     30.     26.     30.     27.     35.      8.      8.     13.     0.0     0.0     0.0     0.0     0.0     0.0     0.0     0.0     0.0     0.0     0.0     0.0     0.0     0.1     0.1     0.2     0.0     0.0     0.0     0.0     0.0     0.1     0.1     0.0     0.1     0.1     0.1     0.0     0.0     0.0
 2020 147    38    0.00    0.00    0.00    0.01     7.0   0.000   0.007   0.008   0.020     0.0     0.0     0.1     1.1     214    0.04    0.21    1.03    0.42     0.0     0.0     0.0     0.4     0.2     0.2     0.2     0.0     0.0     0.0     10.     30.     23.     24.     28.     25.     34.      8.      8.     13.     0.0     0.0     0.0     0.0     0.0     0.0     0.0     0.0     0.0     0.0     0.0     0.0     0.0     0.4     0.2     0.2     0.2     0.0     0.0     0.0     0.0     0.0     0.0     0.0     0.1     0.1     0.1     0.0     0.0     0.0
 2020 148    39    0.00    0.00    0.00    0.01     7.2   0.000   0.007   0.008   0.020     0.1     0.1     0.2     0.5     227    0.02    0.23    0.52    0.45     0.0     0.0     0.0     0.2     0.1     0.1     0.2     0.0     0.0     0.0     16.     33.     25.     25.     29.     26.     34.      8.      8.     13.     0.0     0.0     0.0     0.0     0.0     0.0     0.0     0.0     0.0     0.0     0.0     0.0     0.0     0.2     0.1     0.1     0.2     0.0     0.0     0.0     0.0     0.0     0.0     0.0     0.1     0.0     0.1     0.0     0.0     0.0
 2020 149    40    0.00    0.00    0.01    0.01     7.5   0.000   0.007   0.009   0.021     0.1     0.1     0.3     0.4     235    0.01    0.24    0.42    0.48     0.0     0.0     0.0     0.1     0.1     0.1     0.2     0.0     0.0     0.0     18.     35.     26.     25.     29.     26.     35.      9.      8.     13.     0.0     0.0     0.0     0.0     0.0     0.0     0.0     0.0     0.0     0.0     0.0     0.0     0.0     0.1     0.1     0.1     0.2     0.0     0.0     0.0     0.0     0.1     0.0     0.0     0.1     0.0     0.1     0.0     0.0     0.0
 2020 150    41    0.00    0.00    0.01    0.01     7.7   0.000   0.008   0.009   0.021     0.2     0.1     0.4     0.4     244    0.02    0.24    0.43    0.51     0.0     0.0     0.0     0.1     0.1     0.1     0.2     0.0     0.0     0.0     22.     36.     27.     26.     30.     27.     35.      9.      8.     14.     0.0     0.0     0.0     0.0     0.0     0.0     0.0     0.0     0.0     0.0     0.0     0.0     0.0     0.1     0.1     0.1     0.2     0.0     0.0     0.0     0.0     0.1     0.0     0.0     0.1     0.1     0.1     0.0     0.0     0.0
 2020 151    42    0.00    0.00    0.01    0.01     7.9   0.000   0.008   0.010   0.022     0.2     0.2     0.4     0.6     253    0.02    0.25    0.54    0.54     0.0     0.0     0.1     0.1     0.1     0.1     0.2     0.0     0.0     0.0     22.     37.     28.     27.     31.     28.     37.      9.      9.     14.     0.0     0.0     0.0     0.0     0.0     0.0     0.0     0.0     0.0     0.0     0.0     0.0     0.1     0.1     0.1     0.1     0.2     0.0     0.0     0.0     0.0     0.1     0.0     0.0     0.1     0.1     0.1     0.0     0.0     0.0
 2020 152    43    0.00    0.00    0.01    0.01     8.2   0.000   0.008   0.010   0.022     0.2     0.2     0.4     0.6     289    0.02    0.29    0.53    0.61     0.0     0.0     0.1     0.1     0.1     0.1     0.2     0.0     0.0     0.0     24.     46.     32.     30.     35.     31.     41.     10.     10.     16.     0.0     0.0     0.0     0.0     0.0     0.0     0.0     0.0     0.0     0.0     0.0     0.0     0.1     0.1     0.1     0.1     0.2     0.0     0.0     0.0     0.0     0.1     0.1     0.1     0.1     0.1     0.1     0.0     0.0     0.0
 2020 153    44    0.00    0.00    0.01    0.01     8.6   0.000   0.009   0.011   0.023     0.2     0.2     0.4     0.5     330    0.02    0.33    0.50    0.70     0.0     0.0     0.0     0.1     0.1     0.1     0.2     0.0     0.0     0.0     27.     51.     39.     34.     39.     36.     47.     11.     11.     18.     0.0     0.1     0.0     0.0     0.0     0.0     0.1     0.0     0.0     0.0     0.0     0.0     0.0     0.1     0.1     0.1     0.2     0.0     0.0     0.0     0.0     0.1     0.1     0.1     0.1     0.1     0.1     0.0     0.0     0.1
 2020 154    45    0.00    0.00    0.01    0.01     9.0   0.000   0.009   0.011   0.024     0.2     0.2     0.4     0.5     384    0.02    0.38    0.50    0.81     0.0     0.0     0.0     0.0     0.1     0.1     0.3     0.0     0.0     0.0     32.     60.     45.     41.     46.     42.     55.     13.     13.     21.     0.0     0.1     0.0     0.0     0.1     0.0     0.1     0.0     0.0     0.0     0.0     0.0     0.0     0.0     0.1     0.1     0.2     0.0     0.0     0.0     0.1     0.1     0.1     0.1     0.1     0.1     0.2     0.0     0.0     0.1
 2020 155    46    0.00    0.00    0.01    0.01     9.4   0.000   0.009   0.012   0.025     0.2     0.2     0.4     0.5     436    0.02    0.44    0.50    0.92     0.0     0.0     0.0     0.0     0.1     0.1     0.3     0.0     0.0     0.0     35.     66.     51.     50.     52.     47.     62.     15.     15.     24.     0.0     0.1     0.1     0.0     0.1     0.1     0.1     0.0     0.0     0.0     0.0     0.0     0.0     0.0     0.1     0.1     0.3     0.0     0.0     0.0     0.1     0.1     0.1     0.1     0.1     0.1     0.2     0.0     0.0     0.1
 2020 156    47    0.00    0.00    0.01    0.01     9.9   0.000   0.010   0.012   0.026     0.2     0.2     0.5     0.5     465    0.02    0.46    0.51    0.98     0.0     0.0     0.0     0.0     0.1     0.1     0.3     0.0     0.0     0.0     36.     69.     53.     52.     56.     51.     67.     17.     16.     26.     0.0     0.1     0.1     0.1     0.1     0.1     0.1     0.0     0.0     0.0     0.0     0.0     0.0     0.0     0.1     0.1     0.3     0.0     0.0     0.0     0.1     0.1     0.1     0.1     0.1     0.1     0.2     0.0     0.0     0.1
 2020 157    48    0.00    0.00    0.01    0.01    10.3   0.000   0.010   0.013   0.027     0.2     0.2     0.5     0.5     493    0.02    0.49    0.50    1.04     0.0     0.0     0.0     0.0     0.1     0.1     0.3     0.0     0.0     0.0     38.     72.     55.     54.     59.     54.     72.     18.     17.     28.     0.0     0.1     0.1     0.1     0.1     0.1     0.1     0.0     0.0     0.0     0.0     0.0     0.0     0.0     0.1     0.1     0.3     0.0     0.0     0.0     0.1     0.1     0.1     0.1     0.1     0.1     0.2     0.1     0.0     0.1
 2020 158    49    0.00    0.00    0.01    0.01    10.9   0.000   0.011   0.013   0.028     0.2     0.2     0.5     0.5     508    0.02    0.51    0.46    1.08     0.0     0.0     0.0     0.0     0.0     0.1     0.3     0.0     0.0     0.0     38.     73.     56.     55.     61.     56.     75.     19.     18.     30.     0.0     0.1     0.1     0.1     0.1     0.1     0.1     0.0     0.0     0.0     0.0     0.0     0.0     0.0     0.0     0.1     0.3     0.0     0.0     0.0     0.1     0.1     0.1     0.1     0.1     0.1     0.2     0.1     0.1     0.1