*SOIL WATER DAILY OUTPUT FILE

*DSSAT Cropping System Model Ver. 4.8.2.000 -release  SEP 04, 2025 19:41:23

*RUN   1        : farm_23                   MZCER048 UNLI2309    1
 MODEL          : MZCER048 - Maize
 EXPERIMENT     : UNLI2309 MZ PIO1366
 DATA PATH      :
 TREATMENT  1   : farm_23                   MZCER048
  
!                                                                                                                                   Soil water content (mm3/mm3) by soil depth (cm):
!                                                                                                                                   0-5    5-15   15-23   23-31   31-46   46-61   61-91  91-106 106-122 122-152 152-167 167-183
@YEAR DOY   DAS    SWTD    SWXD    ROFC    DRNC    PREC    IR#C    IRRC   LATFC    DTWT    MWTD    TDFD    TDFC    ROFD    ROSD    SW1D    SW2D    SW3D    SW4D    SW5D    SW6D    SW7D    SW8D    SW9D   SW10D   SW11D   SW12D
 2020 109     0     425     207       0       0       0       0       0       0     183    0.87     0.0     0.0    0.00    0.00   0.289   0.289   0.289   0.289   0.255   0.255   0.220   0.210   0.210   0.210   0.210   0.210
 2020 110     1     426     208       0       0       2       0       0       0     183    1.17     0.0     0.0    0.00    0.00   0.306   0.289   0.289   0.289   0.255   0.255   0.220   0.210   0.210   0.210   0.210   0.210
 2020 111     2     426     208       0       0       2       0       0       0     183    1.39     0.0     0.0    0.00    0.00   0.302   0.291   0.289   0.289   0.255   0.255   0.220   0.210   0.210   0.210   0.210   0.210
 2020 112     3     426     208       0       0       2       0       0       0     183    0.27     0.0     0.0    0.00    0.00   0.299   0.292   0.290   0.289   0.255   0.255   0.220   0.210   0.210   0.210   0.210   0.210
 2020 113     4     426     208       0       0       2       0       0       0     183    0.05     0.0     0.0    0.00    0.00   0.297   0.293   0.290   0.289   0.255   0.255   0.220   0.210   0.210   0.210   0.210   0.210
 2020 114     5     426     208       0       0       3       0       0       0     183    0.96     0.0     0.0    0.00    0.00   0.293   0.293   0.290   0.290   0.255   0.255   0.220   0.210   0.210   0.210   0.210   0.210
 2020 115     6     429     211       0       0       9       0       0       0     183    2.77     0.0     0.0    0.00    0.00   0.344   0.299   0.290   0.290   0.255   0.255   0.220   0.210   0.210   0.210   0.210   0.210
 2020 116     7     429     211       0       0       9       0       0       0     183    0.80     0.0     0.0    0.00    0.00   0.326   0.307   0.292   0.290   0.255   0.255   0.220   0.210   0.210   0.210   0.210   0.210
 2020 117     8     429     211       0       0       9       0       0       0     183    0.15     0.0     0.0    0.00    0.00   0.319   0.308   0.294   0.291   0.255   0.255   0.220   0.210   0.210   0.210   0.210   0.210
 2020 118     9     429     211       0       0       9       0       0       0     183    0.03     0.0     0.0    0.00    0.00   0.312   0.308   0.296   0.291   0.255   0.255   0.220   0.210   0.210   0.210   0.210   0.210
 2020 119    10     429     210       0       0       9       0       0       0     183    0.01     0.0     0.0    0.00    0.00   0.305   0.307   0.297   0.292   0.255   0.255   0.220   0.210   0.210   0.210   0.210   0.210
 2020 120    11     429     210       0       0       9       0       0       0     183    0.00     0.0     0.0    0.00    0.00   0.300   0.305   0.297   0.293   0.255   0.255   0.220   0.210   0.210   0.210   0.210   0.210
 2020 121    12     428     210       0       0       9       0       0       0     183    0.00     0.0     0.0    0.00    0.00   0.297   0.304   0.298   0.293   0.255   0.255   0.220   0.210   0.210   0.210   0.210   0.210
 2020 122    13     428     209       0       0       9       0       0       0     183    0.00     0.0     0.0    0.00    0.00   0.293   0.302   0.298   0.294   0.256   0.255   0.220   0.210   0.210   0.210   0.210   0.210
 2020 123    14     429     210       0       0      14       0       0       0     183    3.50     0.0     0.0    0.00    0.00   0.313   0.300   0.297   0.294   0.256   0.255   0.220   0.210   0.210   0.210   0.210   0.210
 2020 124    15     439     221       0       0      24       0       0       0     183    1.51     0.0     0.0    0.00    0.00   0.411   0.342   0.313   0.295   0.256   0.255   0.220   0.210   0.210   0.210   0.210   0.210
 2020 125    16     458     239       0       0      46       0       0       0     183    3.58     0.0     0.0    0.00    0.00   0.415   0.401   0.385   0.352   0.269   0.255   0.220   0.210   0.210   0.210   0.210   0.210
 2020 126    17     458     239       0       0      46       0       0       0     183    1.50     0.0     0.0    0.00    0.00   0.366   0.360   0.354   0.337   0.295   0.295   0.221   0.210   0.210   0.210   0.210   0.210
 2020 127    18     458     239       0       0      46       0       0       0     183    0.29     0.0     0.0    0.00    0.00   0.346   0.344   0.341   0.335   0.295   0.294   0.234   0.210   0.210   0.210   0.210   0.210
 2020 128    19     458     239       0       0      46       0       0       0     183    0.06     0.0     0.0    0.00    0.00   0.337   0.337   0.336   0.335   0.295   0.293   0.239   0.210   0.210   0.210   0.210   0.210
 2020 129    20     457     239       0       0      46       0       0       0     183    0.01     0.0     0.0    0.00    0.00   0.330   0.335   0.334   0.335   0.295   0.294   0.241   0.211   0.210   0.210   0.210   0.210
 2020 130    21     457     239       0       0      46       0       0       0     183    0.00     0.0     0.0    0.00    0.00   0.327   0.334   0.334   0.335   0.295   0.293   0.241   0.211   0.210   0.210   0.210   0.210
 2020 131    22     457     238       0       0      46       0       0       0     183    0.00     0.0     0.0    0.00    0.00   0.326   0.333   0.334   0.335   0.295   0.293   0.241   0.211   0.210   0.210   0.210   0.210
 2020 132    23     457     238       0       0      46       0       0       0     183    0.00     0.0     0.0    0.00    0.00   0.328   0.331   0.334   0.335   0.295   0.292   0.241   0.212   0.210   0.210   0.210   0.210
 2020 133    24     457     238       0       0      46       0       0       0     183    0.00     0.0     0.0    0.00    0.00   0.328   0.331   0.333   0.335   0.295   0.292   0.241   0.212   0.210   0.210   0.210   0.210
 2020 134    25     456     238       0       0      46       0       0       0     183    0.00     0.0     0.0    0.00    0.00   0.326   0.331   0.332   0.334   0.295   0.292   0.241   0.213   0.210   0.210   0.210   0.210
 2020 135    26     456     238       0       0      46       0       0       0     183    0.00     0.0     0.0    0.00    0.00   0.322   0.330   0.332   0.334   0.295   0.291   0.241   0.213   0.210   0.210   0.210   0.210
 2020 136    27     469     251       0       0      63       0       0       0     183    3.50     0.0     0.0    0.00    0.00   0.415   0.366   0.358   0.348   0.299   0.296   0.242   0.213   0.210   0.210   0.210   0.210
 2020 137    28     479     260       0       0      72       0       0       0     183    1.51     0.0     0.0    0.00    0.00   0.415   0.384   0.381   0.368   0.307   0.302   0.249   0.214   0.210   0.210   0.210   0.210
 2020 138    29     479     260       0       0      72       0       0       0     183    0.29     0.0     0.0    0.00    0.00   0.366   0.353   0.352   0.347   0.299   0.297   0.257   0.246   0.237   0.210   0.210   0.210
 2020 139    30     479     260       0       0      72       0       0       0     183    0.06     0.0     0.0    0.00    0.00   0.345   0.341   0.341   0.339   0.296   0.297   0.257   0.245   0.245   0.220   0.210   0.210
 2020 140    31     479     260       0       0      72       0       0       0     183    0.01     0.0     0.0    0.00    0.00   0.332   0.336   0.336   0.335   0.296   0.297   0.257   0.245   0.244   0.225   0.210   0.210
 2020 141    32     478     260       0       0      72       0       0       0     183    0.00     0.0     0.0    0.00    0.00   0.321   0.334   0.334   0.335   0.296   0.297   0.257   0.245   0.245   0.226   0.210   0.210
 2020 142    33     478     259       0       0      74       0       0       0     183    1.90     0.0     0.0    0.00    0.00   0.326   0.332   0.334   0.335   0.296   0.297   0.257   0.245   0.244   0.226   0.211   0.210
 2020 143    34     478     259       0       0      74       0       0       0     183    0.65     0.0     0.0    0.00    0.00   0.329   0.331   0.333   0.335   0.296   0.297   0.257   0.245   0.244   0.226   0.211   0.210
 2020 144    35     478     260       0       0      78       0       0       0     183    3.26     0.0     0.0    0.00    0.00   0.333   0.331   0.332   0.335   0.296   0.297   0.257   0.245   0.243   0.226   0.211   0.210
 2020 145    36     478     260       0       0      78       0       0       0     183    0.63     0.0     0.0    0.00    0.00   0.332   0.331   0.332   0.335   0.296   0.297   0.257   0.245   0.243   0.226   0.212   0.210
 2020 146    37     488     269       0       0      91       0       0       0     183    3.53     0.0     0.0    0.00    0.00   0.415   0.355   0.349   0.343   0.298   0.298   0.260   0.245   0.243   0.226   0.212   0.210
 2020 147    38     488     269       0       0      91       0       0       0     183    0.68     0.0     0.0    0.00    0.00   0.366   0.342   0.339   0.337   0.296   0.295   0.260   0.245   0.245   0.244   0.212   0.210
 2020 148    39     488     269       0       0      91       0       0       0     183    0.13     0.0     0.0    0.00    0.00   0.346   0.336   0.336   0.335   0.296   0.295   0.260   0.245   0.245   0.245   0.225   0.210
 2020 149    40     487     269       0       0      91       0       0       0     183    0.03     0.0     0.0    0.00    0.00   0.330   0.334   0.335   0.335   0.296   0.295   0.260   0.245   0.245   0.245   0.228   0.211
 2020 150    41     487     268       0       0      91       0       0       0     183    0.00     0.0     0.0    0.00    0.00   0.320   0.333   0.335   0.335   0.296   0.295   0.260   0.245   0.245   0.244   0.228   0.211
 2020 151    42     486     268       0       0      92       0       0       0     183    0.76     0.0     0.0    0.00    0.00   0.315   0.331   0.334   0.335   0.296   0.295   0.260   0.245   0.245   0.244   0.228   0.212
 2020 152    43     486     268       0       0      92       0       0       0     183    0.15     0.0     0.0    0.00    0.00   0.322   0.328   0.333   0.334   0.296   0.295   0.260   0.245   0.245   0.244   0.228   0.212
 2020 153    44     485     267       0       0      92       0       0       0     183    0.03     0.0     0.0    0.00    0.00   0.315   0.327   0.331   0.334   0.296   0.295   0.260   0.245   0.245   0.244   0.228   0.213
 2020 154    45     485     266       0       0      92       0       0       0     183    0.01     0.0     0.0    0.00    0.00   0.309   0.325   0.330   0.332   0.296   0.295   0.260   0.245   0.245   0.244   0.228   0.213
 2020 155    46     484     266       0       0      92       0       0       0     183    0.00     0.0     0.0    0.00    0.00   0.304   0.323   0.328   0.331   0.295   0.295   0.260   0.245   0.245   0.243   0.228   0.213
 2020 156    47     483     265       0       0      92       0       0       0     183    0.00     0.0     0.0    0.00    0.00   0.299   0.320   0.327   0.329   0.295   0.295   0.260   0.245   0.245   0.243   0.228   0.214
 2020 157    48     482     264       0       0      92       0       0       0     183    0.00     0.0     0.0    0.00    0.00   0.294   0.317   0.324   0.327   0.294   0.295   0.260   0.245   0.245   0.243   0.228   0.214
 2020 158    49     481     263       0       0      93       0       0       0     183    1.24     0.0     0.0    0.00    0.00   0.291   0.314   0.322   0.326   0.293   0.295   0.260   0.245   0.245   0.243   0.228   0.215
 2020 159    50     481     262       0       0      93       0       0       0     183    0.24     0.0     0.0    0.00    0.00   0.297   0.311   0.320   0.323   0.292   0.295   0.260   0.245   0.245   0.243   0.228   0.215
 2020 160    51     480     261       0       0      96       0       0       0     183    2.42     0.0     0.0    0.00    0.00   0.296   0.309   0.317   0.321   0.290   0.295   0.260   0.245   0.245   0.242   0.228   0.215
 2020 161    52     480     262       0       0      98       0       0       0     183    3.00     0.0     0.0    0.00    0.00   0.314   0.308   0.317   0.321   0.289   0.295   0.260   0.245   0.245   0.242   0.228   0.216
 2020 162    53     480     261       0       0      98       0       0       0     183    0.58     0.0     0.0    0.00    0.00   0.310   0.309   0.315   0.319   0.288   0.294   0.260   0.245   0.245   0.242   0.228   0.216
 2020 163    54     479     260       0       0      98       0       0       0     183    0.11     0.0     0.0    0.00    0.00   0.308   0.309   0.313   0.317   0.286   0.293   0.260   0.245   0.244   0.242   0.228   0.216
 2020 164    55     477     259       0       0      98       0       0       0     183    0.02     0.0     0.0    0.00    0.00   0.298   0.307   0.311   0.315   0.285   0.291   0.260   0.245   0.244   0.242   0.228   0.217
 2020 165    56     476     257       0       0      98       0       0       0     183    0.00     0.0     0.0    0.00    0.00   0.289   0.305   0.309   0.313   0.283   0.290   0.260   0.245   0.244   0.242   0.228   0.217
 2020 166    57     474     256       0       0      98       0       0       0     183    0.00     0.0     0.0    0.00    0.00   0.282   0.301   0.307   0.311   0.281   0.288   0.259   0.245   0.244   0.241   0.228   0.217
 2020 167    58     472     254       0       0      98       0       0       0     183    0.00     0.0     0.0    0.00    0.00   0.275   0.298   0.304   0.308   0.278   0.286   0.259   0.245   0.244   0.241   0.228   0.218
 2020 168    59     470     252       0       0      98       0       0       0     183    0.00     0.0     0.0    0.00    0.00   0.268   0.293   0.301   0.305   0.276   0.284   0.259   0.245   0.244   0.241   0.228   0.218
 2020 169    60     468     249       0       0      98       0       0       0     183    0.00     0.0     0.0    0.00    0.00   0.262   0.289   0.298   0.302   0.273   0.282   0.258   0.245   0.244   0.241   0.228   0.218
 2020 170    61     466     248       0       0      98       0       0       0     183    0.00     0.0     0.0    0.00    0.00   0.259   0.286   0.295   0.300   0.271   0.280   0.257   0.245   0.244   0.241   0.228   0.219
 2020 171    62     465     246       0       0     100       0       0       0     183    2.19     0.0     0.0    0.00    0.00   0.260   0.283   0.293   0.298   0.270   0.279   0.256   0.245   0.244   0.241   0.228   0.219
 2020 172    63     463     245       0       0     100       0       0       0     183    0.42     0.0     0.0    0.00    0.00   0.262   0.279   0.290   0.295   0.267   0.277   0.255   0.245   0.244   0.241   0.228   0.219
 2020 173    64     462     243       0       0     100       0       0       0     183    0.08     0.0     0.0    0.00    0.00   0.262   0.277   0.287   0.293   0.265   0.275   0.254   0.245   0.244   0.241   0.228   0.219
 2020 174    65     460     241       0       0     102       0       0       0     183    2.20     0.0     0.0    0.00    0.00   0.259   0.274   0.284   0.290   0.263   0.273   0.253   0.245   0.244   0.240   0.228   0.220
 2020 175    66     458     240       0       0     102       0       0       0     183    0.42     0.0     0.0    0.00    0.00   0.259   0.271   0.282   0.287   0.260   0.271   0.252   0.244   0.244   0.240   0.228   0.220
 2020 176    67     456     237       0       0     102       0       0       0     183    0.08     0.0     0.0    0.00    0.00   0.256   0.268   0.278   0.284   0.258   0.269   0.251   0.244   0.244   0.240   0.228   0.220
 2020 177    68     454     235       0       0     104       0       0       0     183    1.73     0.0     0.0    0.00    0.00   0.251   0.266   0.276   0.281   0.255   0.267   0.249   0.244   0.244   0.240   0.228   0.220
 2020 178    69     452     233       0       0     104       0       0       0     183    0.62     0.0     0.0    0.00    0.00   0.251   0.262   0.272   0.278   0.252   0.264   0.247   0.244   0.244   0.240   0.228   0.221
 2020 179    70     450     231       0       0     104       0       0       0     183    0.12     0.0     0.0    0.00    0.00   0.249   0.260   0.269   0.275   0.250   0.262   0.246   0.243   0.243   0.240   0.229   0.221
 2020 180    71     447     228       0       0     104       0       0       0     183    0.02     0.0     0.0    0.00    0.00   0.242   0.256   0.266   0.272   0.247   0.259   0.244   0.243   0.243   0.240   0.229   0.221
 2020 181    72     444     225       0       0     104       0       0       0     183    0.00     0.0     0.0    0.00    0.00   0.232   0.253   0.262   0.268   0.244   0.256   0.242   0.243   0.243   0.240   0.229   0.221
 2020 182    73     442     223       0       0     104       0       0       0     183    0.00     0.0     0.0    0.00    0.00   0.225   0.250   0.259   0.265   0.241   0.254   0.240   0.242   0.243   0.240   0.229   0.222
 2020 183    74     439     221       0       0     104       0       0       0     183    0.00     0.0     0.0    0.00    0.00   0.218   0.246   0.256   0.262   0.238   0.252   0.239   0.242   0.243   0.239   0.229   0.222
 2020 184    75     437     218       0       0     104       0       0       0     183    0.00     0.0     0.0    0.00    0.00   0.212   0.243   0.254   0.260   0.236   0.250   0.237   0.242   0.243   0.239   0.229   0.222
 2020 185    76     434     216       0       0     104       0       0       0     183    0.00     0.0     0.0    0.00    0.00   0.205   0.239   0.250   0.257   0.233   0.247   0.235   0.241   0.243   0.239   0.229   0.222
 2020 186    77     431     213       0       0     104       0       0       0     183    0.00     0.0     0.0    0.00    0.00   0.199   0.235   0.247   0.253   0.230   0.244   0.234   0.241   0.242   0.239   0.229   0.223
 2020 187    78     429     211       0       0     104       0       0       0     183    0.00     0.0     0.0    0.00    0.00   0.194   0.232   0.244   0.250   0.228   0.242   0.232   0.240   0.242   0.239   0.229   0.223
 2020 188    79     426     208       0       0     104       0       0       0     183    0.00     0.0     0.0    0.00    0.00   0.188   0.228   0.241   0.247   0.225   0.239   0.230   0.240   0.242   0.239   0.229   0.223
 2020 189    80     424     205       0       0     104       0       0       0     183    0.00     0.0     0.0    0.00    0.00   0.181   0.224   0.237   0.244   0.222   0.237   0.228   0.239   0.242   0.239   0.229   0.223
 2020 190    81     421     203       0       0     108       0       0       0     183    3.14     0.0     0.0    0.00    0.00   0.179   0.221   0.234   0.241   0.219   0.234   0.226   0.239   0.242   0.239   0.229   0.223
 2020 191    82     434     216       0       0     123       0       0       0     183    0.97     0.0     0.0    0.00    0.00   0.401   0.256   0.231   0.238   0.217   0.232   0.225   0.238   0.242   0.239   0.229   0.223
 2020 192    83     432     214       0       0     123       0       0       0     183    0.19     0.0     0.0    0.00    0.00   0.341   0.280   0.231   0.236   0.214   0.230   0.223   0.238   0.241   0.239   0.229   0.224
 2020 193    84     430     211       0       0     123       0       0       0     183    0.04     0.0     0.0    0.00    0.00   0.314   0.284   0.233   0.234   0.212   0.228   0.222   0.237   0.241   0.239   0.229   0.224
 2020 194    85     428     209       0       0     123       0       0       0     183    0.01     0.0     0.0    0.00    0.00   0.297   0.282   0.235   0.232   0.210   0.226   0.220   0.237   0.241   0.238   0.229   0.224
 2020 195    86     455     236       0       0     155       0       0       0     183    3.50     0.0     0.0    0.00    0.00   0.402   0.401   0.349   0.253   0.208   0.224   0.219   0.236   0.240   0.238   0.229   0.224
 2020 196    87     453     235       0       0     155       0       0       0     183    1.51     0.0     0.0    0.00    0.00   0.359   0.359   0.326   0.342   0.211   0.223   0.218   0.236   0.240   0.238   0.230   0.224
 2020 197    88     452     233       0       0     155       0       0       0     183    0.29     0.0     0.0    0.00    0.00   0.341   0.340   0.334   0.327   0.227   0.222   0.217   0.235   0.240   0.238   0.230   0.225
 2020 198    89     450     231       0       0     155       0       0       0     183    0.06     0.0     0.0    0.00    0.00   0.330   0.334   0.330   0.327   0.229   0.220   0.215   0.235   0.240   0.238   0.230   0.225
 2020 199    90     447     229       0       0     155       0       0       0     183    0.01     0.0     0.0    0.00    0.00   0.321   0.330   0.327   0.321   0.229   0.219   0.214   0.234   0.239   0.238   0.230   0.225
 2020 200    91     446     228       0       0     155       0       0       0     183    0.00     0.0     0.0    0.00    0.00   0.318   0.326   0.324   0.317   0.230   0.218   0.213   0.234   0.239   0.238   0.230   0.225
 2020 201    92     444     226       0       0     155       0       0       0     183    0.00     0.0     0.0    0.00    0.00   0.312   0.323   0.321   0.313   0.230   0.217   0.212   0.234   0.239   0.238   0.230   0.225
 2020 202    93     442     224       0       0     156       0       0       0     183    0.29     0.0     0.0    0.00    0.00   0.307   0.319   0.317   0.309   0.230   0.216   0.211   0.233   0.239   0.238   0.230   0.225
 2020 203    94     441     222       0       0     156       0       0       0     183    0.05     0.0     0.0    0.00    0.00   0.306   0.315   0.313   0.306   0.230   0.215   0.210   0.233   0.238   0.238   0.230   0.225
 2020 204    95     439     220       0       0     156       0       0       0     183    0.01     0.0     0.0    0.00    0.00   0.299   0.311   0.310   0.302   0.229   0.214   0.208   0.232   0.238   0.238   0.230   0.226
 2020 205    96     437     219       0       0     156       0       0       0     183    0.00     0.0     0.0    0.00    0.00   0.294   0.308   0.307   0.299   0.229   0.213   0.208   0.232   0.238   0.237   0.230   0.226
 2020 206    97     440     222       0       0     164       0       0       0     183    3.50     0.0     0.0    0.00    0.00   0.351   0.319   0.304   0.296   0.228   0.212   0.207   0.231   0.237   0.237   0.230   0.226
 2020 207    98     453     235       0       0     178       0       0       0     183    0.67     0.0     0.0    0.00    0.00   0.407   0.371   0.351   0.321   0.228   0.211   0.206   0.231   0.237   0.237   0.230   0.226
 2020 208    99     453     234       0       0     178       0       0       0     183    0.13     0.0     0.0    0.00    0.00   0.362   0.348   0.336   0.331   0.258   0.211   0.205   0.230   0.237   0.237   0.230   0.226
 2020 209   100     451     233       0       0     178       0       0       0     183    0.02     0.0     0.0    0.00    0.00   0.337   0.337   0.332   0.328   0.270   0.212   0.205   0.230   0.237   0.237   0.230   0.226
 2020 210   101     449     231       0       0     178       0       0       0     183    0.00     0.0     0.0    0.00    0.00   0.324   0.333   0.330   0.329   0.268   0.212   0.204   0.230   0.236   0.237   0.230   0.226
 2020 211   102     480     261       0       0     213       0       0       0     183    3.50     0.0     0.0    0.00    0.00   0.409   0.401   0.403   0.398   0.305   0.230   0.203   0.229   0.236   0.237   0.230   0.227
 2020 212   103     481     263       0       0     216       0       0       0     183    1.68     0.0     0.0    0.00    0.00   0.388   0.373   0.390   0.393   0.315   0.267   0.203   0.229   0.236   0.237   0.230   0.227
 2020 213   104     480     262       0       0     216       0       0       0     183    0.32     0.0     0.0    0.00    0.00   0.354   0.348   0.355   0.356   0.300   0.294   0.228   0.229   0.236   0.237   0.230   0.227
 2020 214   105     479     261       0       0     218       0       0       0     183    2.44     0.0     0.0    0.00    0.00   0.339   0.340   0.347   0.350   0.301   0.297   0.231   0.228   0.235   0.237   0.230   0.227
 2020 215   106     478     260       0       0     218       0       0       0     183    0.47     0.0     0.0    0.00    0.00   0.334   0.335   0.337   0.339   0.296   0.295   0.239   0.229   0.235   0.236   0.230   0.227
 2020 216   107     478     259       0       0     218       0       0       0     183    0.09     0.0     0.0    0.00    0.00   0.333   0.334   0.334   0.334   0.295   0.294   0.241   0.229   0.235   0.236   0.230   0.227
 2020 217   108     477     258       0       0     218       0       0       0     183    0.02     0.0     0.0    0.00    0.00   0.327   0.333   0.333   0.333   0.294   0.292   0.240   0.229   0.235   0.236   0.230   0.227
 2020 218   109     475     257       0       0     218       0       0       0     183    0.00     0.0     0.0    0.00    0.00   0.320   0.331   0.332   0.332   0.293   0.291   0.240   0.229   0.235   0.236   0.231   0.227
 2020 219   110     474     256       0       0     218       0       0       0     183    0.00     0.0     0.0    0.00    0.00   0.315   0.328   0.330   0.331   0.292   0.290   0.239   0.229   0.234   0.236   0.231   0.227
 2020 220   111     473     254       0       0     218       0       0       0     183    0.00     0.0     0.0    0.00    0.00   0.310   0.325   0.328   0.329   0.291   0.288   0.239   0.229   0.234   0.236   0.231   0.228
 2020 221   112     472     253       0       0     221       0       0       0     183    2.19     0.0     0.0    0.00    0.00   0.310   0.322   0.327   0.328   0.290   0.287   0.238   0.229   0.234   0.236   0.231   0.228
 2020 222   113     471     253       0       0     221       0       0       0     183    0.42     0.0     0.0    0.00    0.00   0.314   0.320   0.325   0.326   0.288   0.286   0.238   0.230   0.234   0.236   0.231   0.228
 2020 223   114     470     252       0       0     221       0       0       0     183    0.08     0.0     0.0    0.00    0.00   0.313   0.319   0.323   0.325   0.287   0.285   0.238   0.230   0.234   0.236   0.231   0.228
 2020 224   115     469     251       0       0     221       0       0       0     183    0.02     0.0     0.0    0.00    0.00   0.307   0.318   0.322   0.324   0.286   0.284   0.237   0.230   0.234   0.236   0.231   0.228
 2020 225   116     468     250       0       0     221       0       0       0     183    0.00     0.0     0.0    0.00    0.00   0.301   0.316   0.321   0.322   0.285   0.283   0.237   0.230   0.234   0.235   0.231   0.228
 2020 226   117     467     248       0       0     221       0       0       0     183    0.00     0.0     0.0    0.00    0.00   0.296   0.314   0.319   0.321   0.284   0.282   0.237   0.230   0.233   0.235   0.231   0.228
 2020 227   118     466     247       0       0     221       0       0       0     183    0.00     0.0     0.0    0.00    0.00   0.292   0.311   0.317   0.320   0.283   0.281   0.236   0.230   0.233   0.235   0.231   0.228
 2020 228   119     465     246       0       0     221       0       0       0     183    0.00     0.0     0.0    0.00    0.00   0.290   0.309   0.316   0.318   0.282   0.281   0.236   0.230   0.233   0.235   0.231   0.228
 2020 229   120     464     246       0       0     221       0       0       0     183    0.00     0.0     0.0    0.00    0.00   0.287   0.307   0.315   0.317   0.282   0.280   0.236   0.230   0.233   0.235   0.231   0.228
 2020 230   121     463     245       0       0     221       0       0       0     183    0.00     0.0     0.0    0.00    0.00   0.283   0.305   0.313   0.316   0.281   0.279   0.235   0.230   0.233   0.235   0.231   0.229
 2020 231   122     462     244       0       0     221       0       0       0     183    0.00     0.0     0.0    0.00    0.00   0.280   0.303   0.312   0.315   0.280   0.279   0.235   0.230   0.233   0.235   0.231   0.229
 2020 232   123     461     243       0       0     221       0       0       0     183    0.00     0.0     0.0    0.00    0.00   0.278   0.301   0.310   0.313   0.279   0.278   0.235   0.230   0.233   0.235   0.231   0.229
 2020 233   124     460     242       0       0     221       0       0       0     183    0.00     0.0     0.0    0.00    0.00   0.275   0.299   0.309   0.312   0.278   0.277   0.235   0.230   0.233   0.235   0.231   0.229
 2020 234   125     460     241       0       0     221       0       0       0     183    0.00     0.0     0.0    0.00    0.00   0.272   0.297   0.307   0.311   0.277   0.277   0.235   0.230   0.233   0.235   0.231   0.229
 2020 235   126     459     240       0       0     221       0       0       0     183    0.00     0.0     0.0    0.00    0.00   0.269   0.295   0.306   0.310   0.276   0.276   0.234   0.229   0.233   0.235   0.231   0.229
 2020 236   127     458     239       0       0     221       0       0       0     183    0.00     0.0     0.0    0.00    0.00   0.266   0.293   0.305   0.309   0.276   0.275   0.234   0.229   0.233   0.235   0.231   0.229
 2020 237   128     457     239       0       0     221       0       0       0     183    0.00     0.0     0.0    0.00    0.00   0.263   0.291   0.303   0.308   0.275   0.275   0.234   0.229   0.233   0.234   0.231   0.229