*Soil Organic Matter daily output file

*DSSAT Cropping System Model Ver. 4.8.2.000 -release  SEP 04, 2025 19:41:23

*RUN   1        : farm_23                   MZCER048 UNLI2309    1
 MODEL          : MZCER048 - Maize
 EXPERIMENT     : UNLI2309 MZ PIO1366
 DATA PATH      :
 TREATMENT  1   : farm_23                   MZCER048
  
@YEAR DOY   DAS    OMAC    SCDD    SOCD    SC0D    SCTD   SOMCT    LCTD    ONAC    SNDD    SOND    SN0D    SNTD   SOMNT    LNTD
 2020 109     0       0   12180  128816    2000  126816  126816     0.0    0.00  1218.0 12681.6    0.00 12681.6 12681.6    0.00
 2020 110     1    5000   12180  130816    4000  126816  126816     0.0   55.00  1218.0 12736.6   55.00 12681.6 12681.6    0.00
 2020 111     2    5000   12180  130815    4000  126815  126815     0.0   55.00  1218.0 12736.5   55.00 12681.5 12681.5    0.00
 2020 112     3    5000   12180  130814    4000  126814  126814     0.0   55.00  1218.0 12736.4   55.00 12681.4 12681.4    0.00
 2020 113     4    5000   12180  130814    4000  126814  126814     0.0   55.00  1218.0 12736.4   55.00 12681.4 12681.4    0.00
 2020 114     5    5000   12179  130813    4000  126813  126813     0.0   55.00  1217.9 12736.3   55.00 12681.3 12681.3    0.00
 2020 115     6    5000   12179  130811    4000  126811  126811     0.0   55.00  1217.9 12736.1   55.00 12681.1 12681.1    0.00
 2020 116     7    5000   12179  130810    4000  126810  126810     0.0   55.00  1217.9 12736.0   55.00 12681.0 12681.0    0.00
 2020 117     8    5000   12179  130808    4000  126808  126808     0.0   55.00  1217.9 12735.8   55.00 12680.8 12680.8    0.00
 2020 118     9    5000   12179  130807    4000  126807  126807     0.0   55.00  1217.9 12735.7   55.00 12680.7 12680.7    0.00
 2020 119    10    5000   12178  130805    4000  126805  126805     0.0   55.00  1217.8 12735.5   55.00 12680.5 12680.5    0.00
 2020 120    11    5000   12178  130803    4000  126803  126803     0.0   55.00  1217.8 12735.3   55.00 12680.3 12680.3    0.00
 2020 121    12    5000   12178  130801    4000  126801  126801     0.0   55.00  1217.8 12735.1   55.00 12680.1 12680.1    0.00
 2020 122    13    5000   12177  130799    4000  126799  126799     0.0   55.00  1217.7 12734.9   55.00 12679.9 12679.9    0.00
 2020 123    14    5000   12177  130796    4000  126796  126796     0.0   55.00  1217.7 12734.6   55.00 12679.6 12679.6    0.00
 2020 124    15    5000   12177  130793    4000  126793  126793     0.0   55.00  1217.7 12734.3   55.00 12679.3 12679.3    0.00
 2020 125    16    5000   12176  130791    4000  126791  126791     0.0   55.00  1217.6 12734.1   55.00 12679.1 12679.1    0.00
 2020 126    17    5000   12176  130788    4000  126788  126788     0.0   55.00  1217.6 12733.8   55.00 12678.8 12678.8    0.00
 2020 127    18    5000   12176  130786    4000  126786  126786     0.0   55.00  1217.6 12733.6   55.00 12678.6 12678.6    0.00
 2020 128    19    5000   12176  130785    4000  126785  126785     0.0   55.00  1217.6 12733.5   55.00 12678.5 12678.5    0.00
 2020 129    20    5000   12175  130783    4000  126783  126783     0.0   55.00  1217.5 12733.3   55.00 12678.3 12678.3    0.00
 2020 130    21    5000   12175  130782    4000  126782  126782     0.0   55.00  1217.5 12733.2   55.00 12678.2 12678.2    0.00
 2020 131    22    5000   12175  130781    4000  126781  126781     0.0   55.00  1217.5 12733.1   55.00 12678.1 12678.1    0.00
 2020 132    23    5000   12175  130780    4000  126780  126780     0.0   55.00  1217.5 12733.0   55.00 12678.0 12678.0    0.00
 2020 133    24    5000   12175  130780    4000  126780  126780     0.0   55.00  1217.5 12733.0   55.00 12678.0 12678.0    0.00
 2020 134    25    5000   12175  130780    4000  126780  126780     0.0   55.00  1217.5 12733.0   55.00 12678.0 12678.0    0.00
 2020 135    26    5000   12175  130779    4000  126779  126779     0.0   55.00  1217.5 12732.9   55.00 12677.9 12677.9    0.00
 2020 136    27    5000   12175  130779    4000  126779  126779     0.0   55.00  1217.5 12732.9   55.00 12677.9 12677.9    0.00
 2020 137    28    5000   12175  130778    4000  126778  126778     0.0   55.00  1217.5 12732.8   55.00 12677.8 12677.8    0.00
 2020 138    29    5000   12174  130777    4000  126777  126777     0.0   55.00  1217.4 12732.7   55.00 12677.7 12677.7    0.00
 2020 139    30    5000   12174  130775    4000  126775  126775     0.0   55.00  1217.4 12732.5   55.00 12677.5 12677.5    0.00
 2020 140    31    5000   12174  130773    4000  126773  126773     0.0   55.00  1217.4 12732.3   55.00 12677.3 12677.3    0.00
 2020 141    32    5000   12173  130771    4000  126771  126771     0.0   55.00  1217.3 12732.1   55.00 12677.1 12677.1    0.00
 2020 142    33    5000   12173  130768    4000  126768  126768     0.0   55.00  1217.3 12731.8   55.00 12676.8 12676.8    0.00
 2020 143    34    5000   12173  130766    4000  126766  126766     0.0   55.00  1217.3 12731.6   55.00 12676.6 12676.6    0.00
 2020 144    35    5000   12173  130763    4000  126763  126763     0.0   55.00  1217.3 12731.3   55.00 12676.3 12676.3    0.00
 2020 145    36    5000   12172  130761    4000  126761  126761     0.0   55.00  1217.2 12731.1   55.00 12676.1 12676.1    0.00
 2020 146    37    5000   12172  130758    4000  126758  126758     0.0   55.00  1217.2 12730.8   55.00 12675.8 12675.8    0.00
 2020 147    38    5000   12171  130755    4000  126755  126755     0.0   55.00  1217.1 12730.5   55.00 12675.5 12675.5    0.00
 2020 148    39    5000   12171  130752    4000  126752  126752     0.0   55.00  1217.1 12730.2   55.00 12675.2 12675.2    0.00
 2020 149    40    5000   12171  130750    4000  126750  126750     0.0   55.00  1217.1 12730.0   55.00 12675.0 12675.0    0.00
 2020 150    41    5000   12170  130747    4000  126747  126747     0.0   55.00  1217.0 12729.7   55.00 12674.7 12674.7    0.00
 2020 151    42    5000   12170  130745    4000  126745  126745     0.0   55.00  1217.0 12729.5   55.00 12674.5 12674.5    0.00
 2020 152    43    5000   12170  130742    4000  126742  126741     0.1   55.00  1217.0 12729.1   55.00 12674.1 12674.1    0.00
 2020 153    44    5000   12169  130738    4000  126738  126738     0.1   55.00  1216.9 12728.8   55.00 12673.8 12673.8    0.00
 2020 154    45    5000   12169  130734    4000  126734  126734     0.2   55.00  1216.9 12728.4   55.00 12673.4 12673.4    0.01
 2020 155    46    5000   12168  130729    4000  126729  126729     0.3   55.00  1216.8 12727.9   55.00 12672.9 12672.9    0.01
 2020 156    47    5000   12168  130725    4000  126725  126724     0.4   55.00  1216.8 12727.4   55.00 12672.4 12672.4    0.01
 2020 157    48    5000   12167  130720    4000  126720  126719     0.5   55.00  1216.7 12726.9   55.00 12671.9 12671.9    0.01
 2020 158    49    5000   12166  130715    4000  126715  126714     0.6   55.00  1216.6 12726.4   55.00 12671.4 12671.4    0.02
 2020 159    50    5000   12166  130709    4000  126709  126709     0.8   55.00  1216.6 12725.9   55.00 12670.9 12670.9    0.02
 2020 160    51    5000   12165  130704    4000  126704  126703     0.9   55.00  1216.5 12725.3   55.00 12670.3 12670.3    0.03
 2020 161    52    5000   12164  130699    4000  126699  126697     1.2   55.00  1216.4 12724.8   55.00 12669.8 12669.8    0.04
 2020 162    53    5000   12164  130694    4000  126694  126692     1.5   55.00  1216.4 12724.3   55.00 12669.3 12669.2    0.05
 2020 163    54    5000   12163  130689    4000  126689  126687     1.7   55.00  1216.3 12723.8   55.00 12668.8 12668.7    0.05
 2020 164    55    5000   12163  130685    4000  126685  126683     2.1   55.00  1216.3 12723.4   55.00 12668.4 12668.3    0.07
 2020 165    56    5000   12162  130682    4000  126682  126679     2.6   55.00  1216.2 12723.0   55.00 12668.0 12667.9    0.08
 2020 166    57    5000   12162  130679    4000  126679  126676     3.2   55.00  1216.2 12722.7   55.00 12667.7 12667.6    0.09
 2020 167    58    5000   12161  130675    4000  126675  126671     3.9   55.00  1216.1 12722.2   55.00 12667.2 12667.1    0.11
 2020 168    59    5000   12161  130671    4000  126671  126666     4.7   55.00  1216.1 12721.7   55.00 12666.7 12666.6    0.12
 2020 169    60    5000   12160  130666    4000  126666  126660     5.5   55.00  1216.0 12721.2   55.00 12666.2 12666.0    0.14
 2020 170    61    5000   12159  130661    4000  126661  126654     6.5   55.00  1215.9 12720.6   55.00 12665.6 12665.4    0.16
 2020 171    62    5000   12159  130656    4000  126656  126648     7.6   55.00  1215.9 12720.0   55.00 12665.0 12664.8    0.18
 2020 172    63    5000   12158  130652    4000  126652  126643     8.8   55.00  1215.8 12719.5   55.00 12664.5 12664.3    0.21
 2020 173    64    5000   12157  130648    4000  126648  126638    10.1   55.00  1215.7 12719.0   55.00 12664.0 12663.8    0.23
 2020 174    65    5000   12157  130645    4000  126645  126633    11.4   55.00  1215.7 12718.6   55.00 12663.6 12663.3    0.25
 2020 175    66    5000   12156  130642    4000  126642  126629    12.8   55.00  1215.6 12718.2   55.00 12663.2 12662.9    0.28
 2020 176    67    5000   12156  130639    4000  126639  126625    14.2   55.00  1215.6 12717.8   55.00 12662.8 12662.5    0.30
 2020 177    68    5000   12155  130636    4000  126636  126621    15.7   55.00  1215.5 12717.4   55.00 12662.4 12662.0    0.33
 2020 178    69    5000   12155  130633    4000  126633  126616    17.2   55.00  1215.5 12716.9   55.00 12661.9 12661.6    0.35
 2020 179    70    5000   12155  130630    4000  126630  126611    18.7   55.00  1215.4 12716.5   55.00 12661.5 12661.1    0.38
 2020 180    71    5000   12154  130627    4000  126627  126606    20.2   55.00  1215.4 12716.0   55.00 12661.0 12660.6    0.41
 2020 181    72    5000   12153  130623    4000  126623  126601    21.8   55.00  1215.3 12715.5   55.00 12660.5 12660.1    0.44
 2020 182    73    5000   12153  130619    4000  126619  126596    23.3   55.00  1215.3 12715.0   55.00 12660.0 12659.5    0.48
 2020 183    74    5000   12152  130615    4000  126615  126591    24.7   55.00  1215.2 12714.5   55.00 12659.5 12659.0    0.51
 2020 184    75    5000   12152  130612    4000  126612  126586    26.3   55.00  1215.2 12714.1   55.00 12659.1 12658.5    0.54
 2020 185    76    5000   12152  130609    4000  126609  126581    28.0   55.00  1215.1 12713.6   55.00 12658.6 12658.1    0.57
 2020 186    77    5000   12151  130606    4000  126606  126577    29.7   55.00  1215.1 12713.2   55.00 12658.2 12657.6    0.61
 2020 187    78    5000   12151  130604    4000  126604  126572    31.4   55.00  1215.1 12712.8   55.00 12657.8 12657.2    0.64
 2020 188    79    5000   12150  130601    4000  126601  126568    33.2   55.00  1215.0 12712.4   55.00 12657.4 12656.7    0.68
 2020 189    80    5000   12150  130598    4000  126598  126563    34.9   55.00  1215.0 12711.9   55.00 12656.9 12656.2    0.71
 2020 190    81    5000   12149  130595    4000  126595  126558    36.7   55.00  1214.9 12711.5   55.00 12656.5 12655.7    0.75
 2020 191    82    5000   12149  130592    4000  126592  126554    38.5   55.00  1214.9 12711.0   55.00 12656.0 12655.2    0.79
 2020 192    83    5000   12149  130589    4000  126589  126549    40.2   55.00  1214.8 12710.5   55.00 12655.5 12654.7    0.83
 2020 193    84    5000   12148  130585    4000  126585  126543    41.9   55.00  1214.8 12710.0   55.00 12655.0 12654.2    0.87
 2020 194    85    5000   12147  130582    4000  126582  126539    43.6   55.00  1214.7 12709.6   55.00 12654.6 12653.7    0.91
 2020 195    86    5000   12147  130579    4000  126579  126534    45.4   55.00  1214.6 12709.1   55.00 12654.1 12653.2    0.95
 2020 196    87    5000   12146  130576    4000  126576  126529    47.1   55.00  1214.6 12708.7   55.00 12653.7 12652.7    0.99
 2020 197    88    5000   12146  130573    4000  126573  126524    48.7   55.00  1214.5 12708.2   55.00 12653.2 12652.2    1.03
 2020 198    89    5000   12145  130570    4000  126570  126519    50.2   55.00  1214.5 12707.7   55.00 12652.7 12651.7    1.07
 2020 199    90    5000   12144  130566    4000  126566  126514    51.7   55.00  1214.4 12707.3   55.00 12652.3 12651.2    1.11
 2020 200    91    5000   12144  130562    4000  126562  126509    53.1   55.00  1214.3 12706.8   55.00 12651.8 12650.6    1.16
 2020 201    92    5000   12143  130559    4000  126559  126504    54.5   55.00  1214.3 12706.3   55.00 12651.3 12650.1    1.20
 2020 202    93    5000   12143  130555    4000  126555  126499    55.9   55.00  1214.2 12705.8   55.00 12650.8 12649.5    1.24
 2020 203    94    5000   12142  130551    4000  126551  126494    57.2   55.00  1214.1 12705.3   55.00 12650.3 12649.0    1.28
 2020 204    95    5000   12141  130547    4000  126547  126489    58.6   55.00  1214.1 12704.8   55.00 12649.8 12648.5    1.32
 2020 205    96    5000   12141  130544    4000  126544  126484    60.0   55.00  1214.0 12704.3   55.00 12649.3 12647.9    1.36
 2020 206    97    5000   12140  130540    4000  126540  126479    61.4   55.00  1214.0 12703.8   55.00 12648.8 12647.4    1.41
 2020 207    98    5000   12140  130536    4000  126536  126473    62.7   55.00  1213.9 12703.3   55.00 12648.3 12646.9    1.45
 2020 208    99    5000   12139  130532    4000  126532  126468    63.9   55.00  1213.8 12702.8   55.00 12647.8 12646.3    1.49
 2020 209   100    5000   12138  130527    4000  126527  126463    64.8   55.00  1213.8 12702.3   55.00 12647.3 12645.7    1.53
 2020 210   101    5000   12138  130523    4000  126523  126457    65.7   55.00  1213.7 12701.7   55.00 12646.7 12645.2    1.57
 2020 211   102    5000   12137  130518    4000  126518  126452    66.7   55.00  1213.6 12701.2   55.00 12646.2 12644.6    1.61
 2020 212   103    5000   12136  130514    4000  126514  126447    67.8   55.00  1213.6 12700.7   55.00 12645.7 12644.1    1.65
 2020 213   104    5000   12136  130510    4000  126510  126442    68.8   55.00  1213.5 12700.2   55.00 12645.2 12643.5    1.69
 2020 214   105    5000   12135  130506    4000  126506  126437    69.6   55.00  1213.5 12699.7   55.00 12644.7 12643.0    1.73
 2020 215   106    5000   12135  130502    4000  126502  126432    70.4   55.00  1213.4 12699.3   55.00 12644.3 12642.5    1.77
 2020 216   107    5000   12134  130499    4000  126499  126427    71.3   55.00  1213.3 12698.8   55.00 12643.8 12642.0    1.81
 2020 217   108    5000   12134  130495    4000  126495  126423    72.3   55.00  1213.3 12698.4   55.00 12643.4 12641.6    1.85
 2020 218   109    5000   12133  130492    4000  126492  126419    73.3   55.00  1213.2 12698.0   55.00 12643.0 12641.1    1.88
 2020 219   110    5000   12133  130489    4000  126489  126415    74.2   55.00  1213.2 12697.6   55.00 12642.6 12640.7    1.92
 2020 220   111    5000   12133  130485    4000  126485  126410    75.1   55.00  1213.2 12697.2   55.00 12642.2 12640.2    1.96
 2020 221   112    5000   12132  130481    4000  126481  126406    75.7   55.00  1213.1 12696.7   55.00 12641.7 12639.7    2.00
 2020 222   113    5000   12131  130477    4000  126477  126400    76.2   55.00  1213.0 12696.2   55.00 12641.2 12639.2    2.03
 2020 223   114    5000   12131  130472    4000  126472  126395    76.7   55.00  1213.0 12695.6   55.00 12640.6 12638.6    2.06
 2020 224   115    5000   12130  130466    4000  126466  126389    77.1   55.00  1212.9 12695.1   55.00 12640.1 12638.0    2.10
 2020 225   116    5000   12130  130461    4000  126461  126384    77.5   55.00  1212.9 12694.5   55.00 12639.5 12637.4    2.13
 2020 226   117    5000   12129  130456    4000  126456  126379    78.0   55.00  1212.8 12694.0   55.00 12639.0 12636.8    2.16
 2020 227   118    5000   12129  130451    4000  126451  126373    78.4   55.00  1212.7 12693.4   55.00 12638.4 12636.3    2.19
 2020 228   119    5000   12128  130447    4000  126447  126368    78.9   55.00  1212.7 12692.9   55.00 12637.9 12635.7    2.22
 2020 229   120    5000   12127  130442    4000  126442  126362    79.4   55.00  1212.6 12692.4   55.00 12637.4 12635.1    2.25
 2020 230   121    5000   12127  130437    4000  126437  126357    79.9   55.00  1212.5 12691.8   55.00 12636.8 12634.6    2.28
 2020 231   122    5000   12126  130432    4000  126432  126352    80.5   55.00  1212.5 12691.3   55.00 12636.3 12634.0    2.31
 2020 232   123    5000   12126  130428    4000  126428  126347    81.1   55.00  1212.4 12690.8   55.00 12635.8 12633.5    2.34
 2020 233   124    5000   12125  130423    4000  126423  126341    81.7   55.00  1212.4 12690.3   55.00 12635.3 12632.9    2.37
 2020 234   125    5000   12125  130418    4000  126418  126336    82.1   55.00  1212.3 12689.7   55.00 12634.7 12632.3    2.40
 2020 235   126    5000   12124  130413    4000  126413  126330    82.4   55.00  1212.3 12689.2   55.00 12634.2 12631.7    2.43
 2020 236   127    5000   12123  130407    4000  126407  126324    82.7   55.00  1212.2 12688.6   55.00 12633.6 12631.1    2.45
 2020 237   128    5000   12123  130402    4000  126402  126319    83.0   55.00  1212.1 12688.0   55.00 12633.0 12630.5    2.48
 2020 238   129    5000   12122  130396    4000  126396  126312    83.2   55.00  1212.1 12687.4   55.00 12632.4 12629.9    2.50
 2020 239   130    5000   12121  130390    4000  126390  126306    83.4   55.00  1212.0 12686.7   55.00 12631.7 12629.2    2.53
 2020 240   131    5000   12121  130384    4000  126384  126300    83.6   55.00  1211.9 12686.1   55.00 12631.1 12628.6    2.55
 2020 241   132    5000   12120  130377    4000  126377  126294    83.7   55.00  1211.8 12685.5   55.00 12630.5 12627.9    2.57
 2020 242   133    5000   12120  130371    4000  126371  126288    83.9   55.00  1211.8 12684.8   55.00 12629.8 12627.2    2.59
 2020 243   134    5000   12119  130366    4000  126366  126282    84.3   55.00  1211.7 12684.3   55.00 12629.3 12626.6    2.62
 2020 244   135    5000   12118  130361    4000  126361  126276    84.7   55.00  1211.7 12683.7   55.00 12628.7 12626.1    2.64
 2020 245   136    5000   12118  130356    4000  126356  126271    85.3   55.00  1211.6 12683.2   55.00 12628.2 12625.5    2.67
 2020 246   137    5000   12117  130352    4000  126352  126266    86.0   55.00  1211.6 12682.7   55.00 12627.7 12625.0    2.70
 2020 247   138    5000   12117  130349    4000  126349  126262    86.8   55.00  1211.5 12682.3   55.00 12627.3 12624.6    2.73
 2020 248   139    5000   12117  130345    4000  126345  126257    87.5   55.00  1211.5 12681.8   55.00 12626.8 12624.1    2.76
 2020 249   140    5000   12116  130341    4000  126341  126253    88.2   55.00  1211.4 12681.4   55.00 12626.4 12623.6    2.79
 2020 250   141    5000   12116  130337    4000  126337  126248    88.8   55.00  1211.4 12680.9   55.00 12625.9 12623.1    2.81
 2020 251   142    5000   12115  130332    4000  126332  126243    89.3   55.00  1211.3 12680.4   55.00 12625.4 12622.6    2.84
 2020 252   143    5000   12115  130328    4000  126328  126238    89.9   55.00  1211.3 12679.9   55.00 12624.9 12622.1    2.87
 2020 253   144    5000   12115  130325    4000  126325  126234    90.6   55.00  1211.3 12679.5   55.00 12624.5 12621.6    2.90
 2020 254   145    5000   12114  130322    4000  126322  126231    91.7   55.00  1211.2 12679.2   55.00 12624.2 12621.3    2.93
 2020 255   146    5000   12114  130321    4000  126321  126228    93.1   55.00  1211.2 12679.0   55.00 12624.0 12621.0    2.97
 2020 256   147    5000   12114  130321    4000  126321  126226    94.6   55.00  1211.2 12678.8   55.00 12623.8 12620.8    3.02
 2020 257   148    5000   12114  130320    4000  126320  126224    96.2   55.00  1211.2 12678.7   55.00 12623.7 12620.6    3.06
 2020 258   149    5000   12113  130319    4000  126319  126222    97.4   55.00  1211.1 12678.4   55.00 12623.4 12620.3    3.10
 2020 259   150    5000   12113  130316    4000  126316  126218    98.3   55.00  1211.1 12678.1   55.00 12623.1 12620.0    3.13
 2020 260   151    5000   12113  130313    4000  126313  126214    98.9   55.00  1211.1 12677.7   55.00 12622.7 12619.5    3.16
 2020 261   152    5000   12112  130310    4000  126310  126210    99.4   55.00  1211.0 12677.3   55.00 12622.3 12619.1    3.19
 2020 262   153    5000   12112  130306    4000  126306  126206    99.9   55.00  1211.0 12676.9   55.00 12621.9 12618.7    3.22
 2020 263   154    5000   12112  130303    4000  126303  126202   100.5   55.00  1211.0 12676.5   55.00 12621.5 12618.3    3.25
 2020 264   155    5000   12111  130299    4000  126299  126198   100.9   55.00  1210.9 12676.1   55.00 12621.1 12617.9    3.28
 2020 265   156    5000   12111  130293    4000  126293  126194    99.1   55.00  1210.9 12675.7   55.00 12620.7 12617.4    3.25
 2020 266   157    5000   12110  130287    4000  126287  126190    97.3   55.00  1210.8 12675.2   55.00 12620.2 12616.9    3.22
 2020 267   158    5000   12110  130280    4000  126280  126185    95.3   55.00  1210.8 12674.6   55.00 12619.6 12616.4    3.19
 2020 268   159    5000   12110  130273    4000  126273  126180    93.4   55.00  1210.7 12674.1   55.00 12619.1 12615.9    3.15
