*PLANT N OUTPUT FILE

*DSSAT Cropping System Model Ver. 4.8.2.000 -release  SEP 02, 2025 14:03:48

*RUN   1        : farm_23                   MZCER048 UNLI2309    1
 MODEL          : MZCER048 - Maize
 EXPERIMENT     : UNLI2309 MZ PIO1366
 DATA PATH      :
 TREATMENT  1   : farm_23                   MZCER048
  
@YEAR DOY   DAS   DAP   CNAD   GNAD   VNAD   GN%D   VN%D   NUPC   LNAD   SNAD   LN%D   SN%D   RN%D   SNN0C   SNN1C
 2020 122    13     0    0.0    0.0    0.0   0.00   0.00    0.0    0.0    0.0    0.0   0.00   0.00    0.00    0.00
 2020 123    14     1    0.0    0.0    0.0   0.00   0.00    0.0    0.0    0.0    0.0   0.00   0.00    0.00    0.00
 2020 124    15     2    0.0    0.0    0.0   0.00   0.00    0.0    0.0    0.0    0.0   0.00   0.00    0.00    0.00
 2020 125    16     3    0.0    0.0    0.0   0.00   0.00    0.0    0.0    0.0    0.0   0.00   0.00    0.00    0.00
 2020 126    17     4    0.0    0.0    0.0   0.00   0.00    0.0    0.0    0.0    0.0   0.00   0.00    0.00    0.00
 2020 127    18     5    0.0    0.0    0.0   0.00   0.00    0.0    0.0    0.0    0.0   0.00   0.00    0.00    0.00
 2020 128    19     6    0.0    0.0    0.0   0.00   0.00    0.0    0.0    0.0    0.0   0.00   0.00    0.00    0.00
 2020 129    20     7    0.0    0.0    0.0   0.00   0.00    0.0    0.0    0.0    0.0   0.00   0.00    0.00    0.00
 2020 130    21     8    0.0    0.0    0.0   0.00   0.00    0.0    0.0    0.0    0.0   0.00   0.00    0.00    0.00
 2020 131    22     9    0.0    0.0    0.0   0.00   0.00    0.0    0.0    0.0    0.0   0.00   0.00    0.00    0.00
 2020 132    23    10    0.0    0.0    0.0   0.00   0.00    0.0    0.0    0.0    0.0   0.00   0.00    0.00    0.00
 2020 133    24    11    0.0    0.0    0.0   0.00   0.00    0.0    0.0    0.0    0.0   0.00   0.00    0.00    0.00
 2020 134    25    12    0.0    0.0    0.0   0.00   0.00    0.0    0.0    0.0    0.0   0.00   0.00    0.00    0.00
 2020 135    26    13    0.0    0.0    0.0   0.00   0.00    0.0    0.0    0.0    0.0   0.00   0.00    0.00    0.00
 2020 136    27    14    0.0    0.0    0.0   0.00   0.00    0.0    0.0    0.0    0.0   0.00   0.00    0.00    0.00
 2020 137    28    15    0.0    0.0    0.0   0.00   0.00    0.0    0.0    0.0    0.0   0.00   0.00    0.00    0.00
 2020 138    29    16    0.0    0.0    0.0   0.00   0.00    0.0    0.0    0.0    0.0   0.00   0.00    0.00    0.00
 2020 139    30    17    0.0    0.0    0.0   0.00   0.00    0.0    0.0    0.0    0.0   0.00   0.00    0.00    0.00
 2020 140    31    18    1.4    0.0    1.4   0.00   4.40    0.0    0.7    0.7    4.4   4.40   2.19    0.00    0.00
 2020 141    32    19    1.4    0.0    1.4   0.00   4.40    0.0    0.7    0.7    4.4   4.40   2.15    0.00    0.00
 2020 142    33    20    1.4    0.0    1.4   0.00   4.40    0.0    0.7    0.7    4.4   4.40   2.14    0.00    0.00
 2020 143    34    21    1.4    0.0    1.4   0.00   4.40    0.0    0.7    0.7    4.4   4.40   2.08    0.00    0.00
 2020 144    35    22    1.4    0.0    1.4   0.00   4.40    0.0    0.7    0.7    4.4   4.40   1.96    0.00    0.00
 2020 145    36    23    1.4    0.0    1.4   0.00   4.40    0.0    0.7    0.7    4.4   4.40   1.86    0.00    0.00
 2020 146    37    24    1.4    0.0    1.4   0.00   4.40    0.0    0.7    0.7    4.4   4.40   1.76    0.00    0.00
 2020 147    38    25    1.4    0.0    1.4   0.00   4.40    0.0    0.7    0.7    4.4   4.40   1.57    0.00    0.00
 2020 148    39    26    1.4    0.0    1.4   0.00   4.40    0.0    0.7    0.7    4.4   4.40   1.41    0.00    0.00
 2020 149    40    27    1.4    0.0    1.4   0.00   4.40    0.0    0.7    0.7    4.4   4.40   1.27    0.00    0.00
 2020 150    41    28    1.4    0.0    1.4   0.00   4.40    0.0    0.7    0.7    4.4   4.40   1.12    0.00    0.00
 2020 151    42    29    1.4    0.0    1.4   0.00   4.27    0.1    0.7    0.7    4.3   4.27   1.26    0.00    0.00
 2020 152    43    30    1.4    0.0    1.4   0.00   3.54    0.1    0.8    0.6    3.5   3.54   1.20    0.00    0.00
 2020 153    44    31    1.6    0.0    1.6   0.00   3.12    0.4    1.1    0.5    3.1   3.12   1.18    0.00    0.01
 2020 154    45    32    2.1    0.0    2.1   0.00   3.22    1.0    1.6    0.5    3.2   3.22   1.24    0.00    0.01
 2020 155    46    33    2.7    0.0    2.7   0.00   3.37    1.8    2.2    0.5    3.4   3.37   1.32    0.00    0.01
 2020 156    47    34    3.2    0.0    3.2   0.00   3.40    2.6    2.7    0.6    3.4   3.40   1.34    0.00    0.02
 2020 157    48    35    3.8    0.0    3.8   0.00   3.25    3.5    3.3    0.5    3.2   3.25   1.34    0.00    0.02
 2020 158    49    36    4.7    0.0    4.7   0.00   3.13    4.4    4.2    0.5    3.1   3.13   1.22    0.00    0.03
 2020 159    50    37    5.8    0.0    5.8   0.00   2.98    5.8    5.3    0.5    3.0   2.98   1.24    0.00    0.04
 2020 160    51    38    6.2    0.0    6.2   0.00   2.70    6.4    5.8    0.4    2.7   2.70   1.05    0.00    0.05
 2020 161    52    39    7.7    0.0    7.7   0.00   3.18    7.9    7.2    0.5    3.2   3.18   1.06    0.00    0.06
 2020 162    53    40    8.3    0.0    8.3   0.00   3.15    8.9    7.8    0.5    3.2   3.15   0.95    0.00    0.06
 2020 163    54    41    8.7    0.0    8.7   0.00   2.96    9.5    8.2    0.5    3.0   2.96   0.84    0.00    0.08
 2020 164    55    42    8.9    0.0    8.9   0.00   2.65    9.7    8.4    0.4    2.6   2.65   0.72    0.00    0.09
 2020 165    56    43    9.0    0.0    9.0   0.00   2.39   10.0    8.6    0.4    2.4   2.39   0.64    0.00    0.10
 2020 166    57    44   10.1    0.0   10.1   0.00   2.34   11.5    9.6    0.5    2.3   2.34   0.68    0.00    0.11
 2020 167    58    45   11.4    0.0   11.4   0.00   2.30   13.3   10.9    0.6    2.3   2.30   0.71    0.00    0.13
 2020 168    59    46   12.5    0.0   12.5   0.00   2.19   14.7   11.8    0.7    2.2   2.19   0.70    0.00    0.15
 2020 169    60    47   13.0    0.0   13.0   0.00   1.99   15.4   12.1    0.9    2.0   1.99   0.66    0.00    0.17
 2020 170    61    48   13.4    0.0   13.4   0.00   1.92   15.9   12.4    1.0    1.9   1.92   0.63    0.00    0.19
 2020 171    62    49   13.7    0.0   13.7   0.00   1.88   16.4   12.6    1.1    1.9   1.88   0.62    0.00    0.21
 2020 172    63    50   14.0    0.0   14.0   0.00   1.81   16.8   12.8    1.2    1.8   1.81   0.58    0.00    0.23
 2020 173    64    51   14.3    0.0   14.3   0.00   1.71   17.2   12.9    1.4    1.7   1.71   0.57    0.00    0.25
 2020 174    65    52   14.5    0.0   14.5   0.00   1.64   17.5   13.0    1.5    1.6   1.64   0.54    0.00    0.27
 2020 175    66    53   14.7    0.0   14.7   0.00   1.59   17.8   13.1    1.7    1.6   1.59   0.51    0.00    0.29
 2020 176    67    54   15.0    0.0   15.0   0.00   1.52   18.2   13.1    1.9    1.5   1.52   0.49    0.00    0.32
 2020 177    68    55   15.2    0.0   15.2   0.00   1.44   18.5   13.1    2.1    1.4   1.44   0.48    0.00    0.34
 2020 178    69    56   15.5    0.0   15.5   0.00   1.38   18.9   13.2    2.3    1.4   1.38   0.47    0.00    0.36
 2020 179    70    57   15.8    0.0   15.8   0.00   1.25   19.3   13.3    2.5    1.2   1.25   0.47    0.00    0.39
 2020 180    71    58   16.1    0.0   16.1   0.00   1.14   19.7   12.9    3.2    1.1   1.14   0.48    0.00    0.41
 2020 181    72    59   16.5    0.0   16.5   0.00   1.07   20.2   12.6    3.9    1.1   1.07   0.48    0.00    0.44
 2020 182    73    60   16.9    0.0   16.9   0.00   1.05   20.6   12.6    4.3    1.1   1.05   0.47    0.00    0.46
 2020 183    74    61   17.2    0.0   17.2   0.00   1.04   21.1   12.7    4.6    1.0   1.04   0.46    0.00    0.49
 2020 184    75    62   17.6    0.0   17.6   0.00   1.02   21.5   12.6    5.0    1.0   1.02   0.47    0.00    0.51
 2020 185    76    63   17.9    0.0   17.9   0.00   0.99   21.9   12.5    5.4    1.0   0.99   0.46    0.00    0.54
 2020 186    77    64   18.2    0.0   18.2   0.00   0.98   22.3   12.5    5.7    1.0   0.98   0.46    0.00    0.57
 2020 187    78    65   18.5    0.0   18.5   0.00   0.96   22.7   12.4    6.1    1.0   0.96   0.46    0.00    0.59
 2020 188    79    66   18.8    0.0   18.8   0.00   0.95   23.1   12.4    6.4    0.9   0.95   0.46    0.00    0.62
 2020 189    80    67   19.2    0.0   19.2   0.00   0.93   23.5   12.4    6.8    0.9   0.93   0.46    0.00    0.65
 2020 190    81    68   19.5    0.0   19.5   0.00   0.92   23.9   12.4    7.1    0.9   0.92   0.46    0.00    0.67
 2020 191    82    69   19.9    0.0   19.9   0.00   0.93   24.4   12.6    7.3    0.9   0.93   0.45    0.00    0.70
 2020 192    83    70   20.2    0.0   20.2   0.00   0.93   24.8   12.7    7.5    0.9   0.93   0.45    0.00    0.73
 2020 193    84    71   20.6    0.0   20.6   0.00   0.93   25.3   12.9    7.6    0.9   0.93   0.45    0.00    0.76
 2020 194    85    72   20.9    0.0   20.9   0.00   0.94   25.7   13.2    7.8    0.9   0.94   0.45    0.00    0.79
 2020 195    86    73   21.3    0.0   21.3   0.00   0.95   26.2   13.4    8.0    0.9   0.95   0.46    0.00    0.82
 2020 196    87    74   21.7    0.0   21.7   0.00   0.95   26.6   13.6    8.1    1.0   0.95   0.46    0.00    0.84
 2020 197    88    75   22.0    0.0   22.0   0.00   0.94   27.1   13.3    8.7    0.9   0.94   0.47    0.00    0.87
 2020 198    89    76   22.3    0.0   22.3   0.00   0.93   27.5   13.0    9.4    0.9   0.93   0.47    0.00    0.90
 2020 199    90    77   22.7    0.0   22.7   0.00   0.93   28.0   12.7   10.1    0.9   0.93   0.48    0.00    0.93
 2020 200    91    78   23.2    0.0   23.2   0.00   0.93   28.5   12.5   10.6    0.9   0.93   0.48    0.00    0.96
 2020 201    92    79   23.6    0.0   23.6   0.00   0.94   29.0   12.3   11.3    0.9   0.94   0.49    0.00    1.00
 2020 202    93    80   24.0    0.0   24.0   0.00   0.94   29.5   12.1   11.9    0.9   0.94   0.50    0.00    1.03
 2020 203    94    81   24.4    0.0   24.4   0.00   0.94   30.0   11.9   12.5    0.9   0.94   0.50    0.00    1.06
 2020 204    95    82   24.8    0.0   24.8   0.00   0.94   30.5   11.6   13.2    0.9   0.94   0.51    0.00    1.09
 2020 205    96    83   25.2    0.0   25.2   0.00   0.95   31.0   11.4   13.8    0.9   0.95   0.51    0.00    1.12
 2020 206    97    84   25.6    0.0   25.6   0.00   0.96   31.5   11.2   14.4    1.0   0.96   0.52    0.00    1.15
 2020 207    98    85   26.0    0.9   25.1   0.77   0.95   32.0   11.1   14.1    0.9   0.95   0.53    0.00    1.19
 2020 208    99    86   26.4    1.2   25.1   0.76   0.96   32.4   11.2   13.9    1.0   0.96   0.54    0.00    1.22
 2020 209   100    87   26.8    1.6   25.1   0.76   0.95   32.9   11.1   14.0    1.0   0.95   0.54    0.00    1.25
 2020 210   101    88   27.2    2.0   25.1   0.76   0.95   33.5   11.1   14.1    0.9   0.95   0.55    0.00    1.29
 2020 211   102    89   27.6    2.4   25.2   0.76   0.95   34.0   11.1   14.1    0.9   0.95   0.55    0.00    1.32
 2020 212   103    90   28.0    2.8   25.1   0.76   0.95   34.4   11.1   14.0    0.9   0.95   0.56    0.00    1.35
 2020 213   104    91   28.3    3.2   25.0   0.76   0.94   34.8   11.0   14.0    0.9   0.94   0.56    0.00    1.39
 2020 214   105    92   28.6    3.6   25.0   0.76   0.94   35.2   11.0   14.0    0.9   0.94   0.57    0.00    1.42
 2020 215   106    93   29.0    4.0   24.9   0.76   0.93   35.7   10.9   14.0    0.9   0.93   0.57    0.00    1.46
 2020 216   107    94   29.3    4.4   24.9   0.76   0.93   36.2   10.9   14.0    0.9   0.93   0.58    0.00    1.49
 2020 217   108    95   29.7    4.8   24.8   0.76   0.93   36.6   10.9   13.9    0.9   0.93   0.59    0.00    1.53
 2020 218   109    96   30.0    5.2   24.8   0.76   0.93   37.0   10.9   13.9    0.9   0.93   0.59    0.00    1.56
 2020 219   110    97   30.4    5.6   24.7   0.76   0.93   37.5   10.8   13.9    0.9   0.93   0.60    0.00    1.60
 2020 220   111    98   30.7    6.1   24.7   0.76   0.92   37.9   10.8   13.9    0.9   0.92   0.61    0.00    1.64
 2020 221   112    99   31.1    6.5   24.7   0.77   0.92   38.4   10.8   13.8    0.9   0.92   0.62    0.00    1.67
 2020 222   113   100   31.5    6.9   24.7   0.77   0.92   38.9   10.8   13.9    0.9   0.92   0.63    0.00    1.71
 2020 223   114   101   32.0    7.3   24.7   0.77   0.93   39.5   10.8   13.9    0.9   0.93   0.63    0.00    1.75
 2020 224   115   102   32.4    7.7   24.7   0.77   0.93   40.0   10.8   13.9    0.9   0.93   0.64    0.00    1.79
 2020 225   116   103   32.9    8.1   24.7   0.77   0.93   40.6   10.9   13.9    0.9   0.93   0.65    0.00    1.82
 2020 226   117   104   33.3    8.6   24.7   0.77   0.93   41.1   10.9   13.8    0.9   0.93   0.66    0.00    1.86
 2020 227   118   105   33.7    9.0   24.7   0.78   0.93   41.6   10.9   13.8    0.9   0.93   0.67    0.00    1.90
 2020 228   119   106   34.1    9.4   24.7   0.78   0.93   42.1   10.9   13.8    0.9   0.93   0.68    0.00    1.94
 2020 229   120   107   34.5    9.9   24.7   0.78   0.94   42.6   11.0   13.7    0.9   0.94   0.69    0.00    1.98
 2020 230   121   108   34.9   10.3   24.6   0.78   0.94   43.1   11.0   13.6    0.9   0.94   0.70    0.00    2.02
 2020 231   122   109   35.3   10.8   24.6   0.78   0.94   43.6   11.0   13.6    0.9   0.94   0.71    0.00    2.06
 2020 232   123   110   35.7   11.2   24.5   0.79   0.95   44.1   11.1   13.4    0.9   0.95   0.71    0.00    2.10
 2020 233   124   111   36.1   11.7   24.5   0.79   0.95   44.6   11.1   13.3    1.0   0.95   0.72    0.00    2.14
 2020 234   125   112   36.6   12.1   24.4   0.79   0.96   45.2   11.2   13.3    1.0   0.96   0.73    0.00    2.18
 2020 235   126   113   37.0   12.6   24.4   0.80   0.96   45.7   11.2   13.2    1.0   0.96   0.74    0.00    2.22
 2020 236   127   114   37.4   13.1   24.4   0.80   0.97   46.3   11.3   13.1    1.0   0.97   0.75    0.00    2.26
 2020 237   128   115   37.9   13.5   24.4   0.80   0.97   46.9   11.4   13.0    1.0   0.97   0.76    0.00    2.30
 2020 238   129   116   38.4   14.0   24.4   0.81   0.98   47.4   11.4   13.0    1.0   0.98   0.77    0.00    2.35
 2020 239   130   117   38.8   14.5   24.4   0.81   0.98   48.0   11.5   12.9    1.0   0.98   0.78    0.00    2.39
 2020 240   131   118   39.3   15.0   24.4   0.82   0.99   48.6   11.5   12.8    1.0   0.99   0.80    0.00    2.43
 2020 241   132   119   39.8   15.5   24.3   0.82   0.99   49.2   11.6   12.7    1.0   0.99   0.81    0.00    2.47
 2020 242   133   120   40.3   16.0   24.3   0.83   1.00   49.8   11.7   12.6    1.0   1.00   0.82    0.00    2.52
 2020 243   134   121   40.7   16.5   24.2   0.83   1.00   50.4   11.7   12.4    1.0   1.00   0.83    0.00    2.56
 2020 244   135   122   41.1   17.1   24.0   0.84   1.00   50.9   11.7   12.3    1.0   1.00   0.84    0.00    2.61
 2020 245   136   123   41.5   17.6   23.9   0.84   1.01   51.3   11.8   12.1    1.0   1.01   0.85    0.00    2.65
 2020 246   137   124   41.8   18.1   23.7   0.85   1.00   51.8   11.7   11.9    1.0   1.00   0.86    0.00    2.70
 2020 247   138   125   42.1   18.7   23.5   0.85   1.00   52.2   11.7   11.7    1.0   1.00   0.86    0.00    2.74
 2020 248   139   126   42.5   19.2   23.3   0.85   1.00   52.6   11.7   11.5    1.0   1.00   0.87    0.00    2.79
 2020 249   140   127   42.8   19.8   23.1   0.86   1.00   53.1   11.7   11.3    1.0   1.00   0.88    0.00    2.83
 2020 250   141   128   43.2   20.3   22.9   0.86   1.01   53.5   11.8   11.1    1.0   1.01   0.89    0.00    2.88
 2020 251   142   129   43.6   20.8   22.7   0.87   1.01   54.0   11.8   10.9    1.0   1.01   0.90    0.00    2.92
 2020 252   143   130   43.9   20.8   23.1   0.87   1.03   54.5   12.0   11.1    1.0   1.03   0.91    0.00    2.97
 2020 253   144   131   44.2   20.8   23.4   0.87   1.04   54.8   12.2   11.2    1.0   1.04   0.92    0.00    3.02
 2020 254   145   132   44.5   21.0   23.4   0.87   1.04   55.2   12.2   11.2    1.0   1.04   0.93    0.00    3.06
 2020 255   146   133   44.7   21.5   23.2   0.87   1.05   55.4   12.2   10.9    1.0   1.05   0.93    0.00    3.11
 2020 256   147   134   44.9   22.1   22.8   0.88   1.04   55.7   12.2   10.6    1.0   1.04   0.94    0.00    3.16
 2020 257   148   135   45.0   22.6   22.4   0.88   1.04   55.9   12.2   10.2    1.0   1.04   0.95    0.00    3.21
 2020 258   149   136   45.2   23.2   22.0   0.89   1.04   56.2   12.2    9.8    1.0   1.04   0.95    0.00    3.25
 2020 259   150   137   45.5   23.8   21.6   0.89   1.04   56.5   12.2    9.4    1.0   1.04   0.96    0.00    3.30
 2020 260   151   138   45.8   24.4   21.4   0.90   1.05   56.8   12.3    9.1    1.0   1.05   0.97    0.00    3.35
 2020 261   152   139   46.0   24.9   21.1   0.90   1.05   57.2   12.3    8.8    1.1   1.05   0.97    0.00    3.40
 2020 262   153   140   46.3   25.5   20.8   0.91   1.06   57.6   12.4    8.5    1.1   1.06   0.98    0.00    3.44
 2020 263   154   141   46.6   26.1   20.5   0.91   1.06   57.9   12.4    8.1    1.1   1.06   0.99    0.00    3.49
 2020 264   155   142   46.6   26.1   20.5   0.91   1.06   57.9   12.4    8.1    1.1   1.06   0.99    0.00    3.49
 2020 265   156   143   46.6   26.1   20.5   0.91   1.06   57.9   12.4    8.1    1.1   1.06   0.99    0.00    3.49
 2020 266   157   144   46.6   26.1   20.5   0.91   1.06   57.9   12.4    8.1    1.1   1.06   0.99    0.00    3.49
 2020 267   158   145   46.6   26.1   20.5   0.91   1.06   57.9   12.4    8.1    1.1   1.06   0.99    0.00    3.49
 2020 268   159   146   46.6   26.1   20.5   0.91   1.06   57.9   12.4    8.1    1.1   1.06   0.99    0.00    3.49
