*Soil Organic Matter daily output file

*DSSAT Cropping System Model Ver. 4.8.2.000 -release  MAR 13, 2025 05:16:48

*RUN   1        : silt_loam_13in_irr        MZCER048 UNLI2201    1
 MODEL          : MZCER048 - Maize
 EXPERIMENT     : UNLI2201 MZ IRRIGATED MAIZE PRODUCTION
 DATA PATH      :
 TREATMENT  1   : silt_loam_13in_irr        MZCER048
  
@YEAR DOY   DAS    OMAC    SCDD    SOCD    SC0D    SCTD   SOMCT    LCTD    ONAC    SNDD    SOND    SN0D    SNTD   SOMNT    LNTD
 2022 120     0       0   14312  148718       0  148718  148718     0.0    0.00  1431.2 14871.8    0.00 14871.8 14871.8    0.00
 2022 121     1       0   14312  148717       0  148717  148717     0.0    0.00  1431.2 14871.7    0.00 14871.7 14871.7    0.00
 2022 122     2       0   14312  148716       0  148716  148716     0.0    0.00  1431.2 14871.6    0.00 14871.6 14871.6    0.00
 2022 123     3       0   14312  148715       0  148715  148715     0.0    0.00  1431.2 14871.5    0.00 14871.5 14871.5    0.00
 2022 124     4       0   14312  148714       0  148714  148714     0.0    0.00  1431.2 14871.4    0.00 14871.4 14871.4    0.00
 2022 125     5       0   14311  148714       0  148714  148714     0.0    0.00  1431.1 14871.4    0.00 14871.4 14871.4    0.00
 2022 126     6       0   14311  148714       0  148714  148714     0.0    0.00  1431.1 14871.4    0.00 14871.4 14871.4    0.00
 2022 127     7       0   14311  148713       0  148713  148713     0.0    0.00  1431.1 14871.3    0.00 14871.3 14871.3    0.00
 2022 128     8       0   14311  148712       0  148712  148712     0.0    0.00  1431.1 14871.2    0.00 14871.2 14871.2    0.00
 2022 129     9       0   14311  148710       0  148710  148710     0.0    0.00  1431.1 14871.0    0.00 14871.0 14871.0    0.00
 2022 130    10       0   14310  148707       0  148707  148707     0.0    0.00  1431.0 14870.7    0.00 14870.7 14870.7    0.00
 2022 131    11       0   14310  148703       0  148703  148703     0.0    0.00  1431.0 14870.3    0.00 14870.3 14870.3    0.00
 2022 132    12       0   14309  148700       0  148700  148700     0.0    0.00  1430.9 14870.0    0.00 14870.0 14870.0    0.00
 2022 133    13       0   14309  148696       0  148696  148696     0.0    0.00  1430.9 14869.6    0.00 14869.6 14869.6    0.00
 2022 134    14       0   14308  148692       0  148692  148692     0.0    0.00  1430.8 14869.2    0.00 14869.2 14869.2    0.00
 2022 135    15       0   14308  148688       0  148688  148688     0.0    0.00  1430.8 14868.8    0.00 14868.8 14868.8    0.00
 2022 136    16       0   14307  148684       0  148684  148684     0.0    0.00  1430.7 14868.4    0.00 14868.4 14868.4    0.00
 2022 137    17       0   14307  148681       0  148681  148681     0.0    0.00  1430.7 14868.1    0.00 14868.1 14868.1    0.00
 2022 138    18       0   14306  148677       0  148677  148677     0.0    0.00  1430.6 14867.7    0.00 14867.7 14867.7    0.00
 2022 139    19       0   14306  148673       0  148673  148673     0.0    0.00  1430.6 14867.3    0.00 14867.3 14867.3    0.00
 2022 140    20       0   14305  148669       0  148669  148669     0.0    0.00  1430.5 14866.9    0.00 14866.9 14866.9    0.00
 2022 141    21       0   14305  148665       0  148665  148665     0.0    0.00  1430.5 14866.5    0.00 14866.5 14866.5    0.00
 2022 142    22       0   14305  148662       0  148662  148662     0.0    0.00  1430.5 14866.2    0.00 14866.2 14866.2    0.00
 2022 143    23       0   14304  148660       0  148660  148660     0.0    0.00  1430.4 14866.0    0.00 14866.0 14866.0    0.00
 2022 144    24       0   14304  148659       0  148659  148659     0.0    0.00  1430.4 14865.9    0.00 14865.9 14865.9    0.00
 2022 145    25       0   14304  148658       0  148658  148658     0.0    0.00  1430.4 14865.8    0.00 14865.8 14865.8    0.00
 2022 146    26       0   14304  148657       0  148657  148657     0.0    0.00  1430.4 14865.7    0.00 14865.7 14865.7    0.00
 2022 147    27       0   14303  148656       0  148656  148656     0.0    0.00  1430.3 14865.5    0.00 14865.5 14865.5    0.00
 2022 148    28       0   14303  148653       0  148653  148653     0.0    0.00  1430.3 14865.3    0.00 14865.3 14865.3    0.00
 2022 149    29       0   14303  148650       0  148650  148650     0.0    0.00  1430.3 14865.0    0.00 14865.0 14865.0    0.00
 2022 150    30       0   14302  148646       0  148646  148646     0.0    0.00  1430.2 14864.6    0.00 14864.6 14864.6    0.00
 2022 151    31       0   14302  148642       0  148642  148642     0.0    0.00  1430.2 14864.2    0.00 14864.2 14864.2    0.00
 2022 152    32       0   14301  148638       0  148638  148638     0.1    0.00  1430.1 14863.8    0.00 14863.8 14863.8    0.00
 2022 153    33       0   14301  148634       0  148634  148634     0.1    0.00  1430.1 14863.4    0.00 14863.4 14863.4    0.00
 2022 154    34       0   14300  148631       0  148631  148631     0.2    0.00  1430.0 14863.1    0.00 14863.1 14863.1    0.01
 2022 155    35       0   14300  148628       0  148628  148628     0.3    0.00  1430.0 14862.8    0.00 14862.8 14862.8    0.01
 2022 156    36       0   14299  148625       0  148625  148625     0.5    0.00  1429.9 14862.5    0.00 14862.5 14862.5    0.01
 2022 157    37       0   14299  148622       0  148622  148621     0.6    0.00  1429.9 14862.1    0.00 14862.1 14862.1    0.02
 2022 158    38       0   14299  148618       0  148618  148617     0.8    0.00  1429.9 14861.7    0.00 14861.7 14861.7    0.02
 2022 159    39       0   14298  148614       0  148614  148613     1.0    0.00  1429.8 14861.3    0.00 14861.3 14861.3    0.03
 2022 160    40       0   14297  148609       0  148609  148608     1.3    0.00  1429.7 14860.8    0.00 14860.8 14860.8    0.04
 2022 161    41       0   14297  148605       0  148605  148603     1.6    0.00  1429.7 14860.4    0.00 14860.4 14860.3    0.04
 2022 162    42       0   14296  148601       0  148601  148599     2.0    0.00  1429.6 14859.9    0.00 14859.9 14859.9    0.05
 2022 163    43       0   14296  148596       0  148596  148594     2.4    0.00  1429.6 14859.5    0.00 14859.5 14859.4    0.06
 2022 164    44       0   14295  148591       0  148591  148589     2.9    0.00  1429.5 14858.9    0.00 14858.9 14858.9    0.07
 2022 165    45       0   14294  148586       0  148586  148582     3.4    0.00  1429.4 14858.3    0.00 14858.3 14858.2    0.08
 2022 166    46       0   14294  148580       0  148580  148576     4.1    0.00  1429.4 14857.7    0.00 14857.7 14857.6    0.09
 2022 167    47       0   14293  148575       0  148575  148570     4.8    0.00  1429.3 14857.1    0.00 14857.1 14857.0    0.10
 2022 168    48       0   14292  148570       0  148570  148564     5.6    0.00  1429.2 14856.5    0.00 14856.5 14856.4    0.11
 2022 169    49       0   14292  148565       0  148565  148559     6.5    0.00  1429.2 14856.0    0.00 14856.0 14855.9    0.12
 2022 170    50       0   14291  148560       0  148560  148553     7.5    0.00  1429.1 14855.4    0.00 14855.4 14855.3    0.14
 2022 171    51       0   14291  148556       0  148556  148547     8.5    0.00  1429.1 14854.9    0.00 14854.9 14854.7    0.15
 2022 172    52       0   14290  148551       0  148551  148541     9.6    0.00  1429.0 14854.3    0.00 14854.3 14854.1    0.16
 2022 173    53       0   14290  148546       0  148546  148535    10.7    0.00  1429.0 14853.7    0.00 14853.7 14853.5    0.18
 2022 174    54       0   14290  148542       0  148542  148530    11.8    0.00  1429.0 14853.2    0.00 14853.2 14853.0    0.20
 2022 175    55       0   14289  148538       0  148538  148525    13.0    0.00  1428.9 14852.7    0.00 14852.7 14852.5    0.21
 2022 176    56       0   14289  148535       0  148535  148520    14.3    0.00  1428.9 14852.2    0.00 14852.2 14852.0    0.23
 2022 177    57       0   14289  148532       0  148532  148516    15.6    0.00  1428.9 14851.8    0.00 14851.8 14851.6    0.25
 2022 178    58       0   14289  148529       0  148529  148512    17.0    0.00  1428.8 14851.5    0.00 14851.5 14851.2    0.27
 2022 179    59       0   14288  148527       0  148527  148508    18.4    0.00  1428.8 14851.1    0.00 14851.1 14850.8    0.29
 2022 180    60       0   14288  148525       0  148525  148505    19.9    0.00  1428.8 14850.8    0.00 14850.8 14850.4    0.31
 2022 181    61       0   14288  148522       0  148522  148501    21.5    0.00  1428.8 14850.4    0.00 14850.4 14850.1    0.33
 2022 182    62       0   14288  148520       0  148520  148497    23.1    0.00  1428.7 14850.0    0.00 14850.0 14849.7    0.35
 2022 183    63       0   14287  148517       0  148517  148493    24.7    0.00  1428.7 14849.6    0.00 14849.6 14849.2    0.37
 2022 184    64       0   14287  148513       0  148513  148487    26.0    0.00  1428.6 14849.1    0.00 14849.1 14848.7    0.40
 2022 185    65       0   14286  148509       0  148509  148482    27.2    0.00  1428.6 14848.6    0.00 14848.6 14848.2    0.43
 2022 186    66       0   14285  148505       0  148505  148477    28.3    0.00  1428.5 14848.1    0.00 14848.1 14847.6    0.46
 2022 187    67       0   14284  148500       0  148500  148471    29.4    0.00  1428.4 14847.5    0.00 14847.5 14847.0    0.49
 2022 188    68       0   14284  148496       0  148496  148465    30.5    0.00  1428.3 14847.0    0.00 14847.0 14846.4    0.53
 2022 189    69       0   14283  148491       0  148491  148459    31.5    0.00  1428.2 14846.4    0.00 14846.4 14845.8    0.56
 2022 190    70       0   14282  148486       0  148486  148453    32.4    0.00  1428.2 14845.8    0.00 14845.8 14845.2    0.60
 2022 191    71       0   14281  148481       0  148481  148447    33.3    0.00  1428.1 14845.2    0.00 14845.2 14844.6    0.63
 2022 192    72       0   14280  148476       0  148476  148441    34.3    0.00  1428.0 14844.6    0.00 14844.6 14844.0    0.66
 2022 193    73       0   14280  148471       0  148471  148435    35.4    0.00  1427.9 14844.1    0.00 14844.1 14843.4    0.70
 2022 194    74       0   14279  148466       0  148466  148430    36.7    0.00  1427.8 14843.5    0.00 14843.5 14842.8    0.73
 2022 195    75       0   14278  148462       0  148462  148424    38.0    0.00  1427.8 14843.0    0.00 14843.0 14842.2    0.76
 2022 196    76       0   14278  148458       0  148458  148419    39.3    0.00  1427.7 14842.5    0.00 14842.5 14841.7    0.79
 2022 197    77       0   14277  148455       0  148455  148414    40.8    0.00  1427.7 14842.0    0.00 14842.0 14841.2    0.82
 2022 198    78       0   14277  148451       0  148451  148409    42.4    0.00  1427.6 14841.5    0.00 14841.5 14840.6    0.85
 2022 199    79       0   14276  148447       0  148447  148403    43.9    0.00  1427.5 14841.0    0.00 14841.0 14840.1    0.88
 2022 200    80       0   14276  148444       0  148444  148398    45.6    0.00  1427.5 14840.5    0.00 14840.5 14839.6    0.91
 2022 201    81       0   14275  148441       0  148441  148394    47.3    0.00  1427.5 14840.1    0.00 14840.1 14839.1    0.94
 2022 202    82       0   14275  148438       0  148438  148389    49.2    0.00  1427.4 14839.6    0.00 14839.6 14838.7    0.98
 2022 203    83       0   14274  148435       0  148435  148384    50.8    0.00  1427.4 14839.2    0.00 14839.2 14838.2    1.01
 2022 204    84       0   14274  148432       0  148432  148379    52.3    0.00  1427.3 14838.7    0.00 14838.7 14837.7    1.04
 2022 205    85       0   14273  148429       0  148429  148375    54.0    0.00  1427.2 14838.3    0.00 14838.3 14837.2    1.07
 2022 206    86       0   14273  148426       0  148426  148370    55.7    0.00  1427.2 14837.8    0.00 14837.8 14836.7    1.11
 2022 207    87       0   14272  148423       0  148423  148366    57.4    0.00  1427.1 14837.4    0.00 14837.4 14836.3    1.14
 2022 208    88       0   14272  148421       0  148421  148361    59.1    0.00  1427.1 14837.0    0.00 14837.0 14835.9    1.17
 2022 209    89       0   14271  148418       0  148418  148357    60.5    0.00  1427.0 14836.6    0.00 14836.6 14835.4    1.21
 2022 210    90       0   14271  148415       0  148415  148353    61.8    0.00  1427.0 14836.2    0.00 14836.2 14835.0    1.24
 2022 211    91       0   14270  148412       0  148412  148349    63.1    0.00  1426.9 14835.9    0.00 14835.9 14834.6    1.28
 2022 212    92       0   14270  148410       0  148410  148345    64.5    0.00  1426.8 14835.5    0.00 14835.5 14834.2    1.31
 2022 213    93       0   14269  148407       0  148407  148341    65.9    0.00  1426.8 14835.1    0.00 14835.1 14833.7    1.35
 2022 214    94       0   14268  148404       0  148404  148337    67.3    0.00  1426.7 14834.7    0.00 14834.7 14833.3    1.38
 2022 215    95       0   14268  148401       0  148401  148332    68.7    0.00  1426.6 14834.3    0.00 14834.3 14832.8    1.42
 2022 216    96       0   14267  148398       0  148398  148327    70.1    0.00  1426.6 14833.8    0.00 14833.8 14832.4    1.45
 2022 217    97       0   14266  148394       0  148394  148323    71.5    0.00  1426.5 14833.4    0.00 14833.4 14831.9    1.49
 2022 218    98       0   14266  148391       0  148391  148318    73.1    0.00  1426.5 14832.9    0.00 14832.9 14831.4    1.52
 2022 219    99       0   14265  148388       0  148388  148314    74.7    0.00  1426.4 14832.5    0.00 14832.5 14830.9    1.56
 2022 220   100       0   14265  148386       0  148386  148309    76.3    0.00  1426.4 14832.1    0.00 14832.1 14830.5    1.60
 2022 221   101       0   14265  148384       0  148384  148306    78.0    0.00  1426.3 14831.8    0.00 14831.8 14830.1    1.64
 2022 222   102       0   14264  148382       0  148382  148302    79.7    0.00  1426.3 14831.4    0.00 14831.4 14829.7    1.67
 2022 223   103       0   14264  148380       0  148380  148298    81.6    0.00  1426.2 14831.1    0.00 14831.1 14829.4    1.71
 2022 224   104       0   14264  148378       0  148378  148295    83.4    0.00  1426.2 14830.8    0.00 14830.8 14829.0    1.75
 2022 225   105       0   14263  148376       0  148376  148291    85.3    0.00  1426.2 14830.4    0.00 14830.4 14828.6    1.79
 2022 226   106       0   14263  148374       0  148374  148287    87.1    0.00  1426.2 14830.1    0.00 14830.1 14828.2    1.83
 2022 227   107       0   14263  148372       0  148372  148283    89.0    0.00  1426.1 14829.7    0.00 14829.7 14827.9    1.87
 2022 228   108       0   14262  148370       0  148370  148279    90.5    0.00  1426.1 14829.3    0.00 14829.3 14827.4    1.90
 2022 229   109       0   14262  148367       0  148367  148275    92.0    0.00  1426.0 14829.0    0.00 14829.0 14827.0    1.94
 2022 230   110       0   14261  148365       0  148365  148271    93.6    0.00  1426.0 14828.6    0.00 14828.6 14826.6    1.98
 2022 231   111       0   14261  148363       0  148363  148268    95.3    0.00  1425.9 14828.3    0.00 14828.3 14826.3    2.02
 2022 232   112       0   14261  148362       0  148362  148265    97.1    0.00  1425.9 14828.0    0.00 14828.0 14825.9    2.06
 2022 233   113       0   14260  148360       0  148360  148261    98.9    0.00  1425.9 14827.7    0.00 14827.7 14825.6    2.10
 2022 234   114       0   14260  148359       0  148359  148258   100.7    0.00  1425.9 14827.4    0.00 14827.4 14825.3    2.14
 2022 235   115       0   14260  148358       0  148358  148255   102.6    0.00  1425.8 14827.1    0.00 14827.1 14825.0    2.18
 2022 236   116       0   14260  148356       0  148356  148252   104.4    0.00  1425.8 14826.9    0.00 14826.9 14824.6    2.22
 2022 237   117       0   14259  148355       0  148355  148249   106.3    0.00  1425.8 14826.6    0.00 14826.6 14824.3    2.26
 2022 238   118       0   14259  148354       0  148354  148245   108.2    0.00  1425.7 14826.3    0.00 14826.3 14824.0    2.31
 2022 239   119       0   14259  148352       0  148352  148242   110.1    0.00  1425.7 14826.0    0.00 14826.0 14823.6    2.35
 2022 240   120       0   14259  148350       0  148350  148238   111.9    0.00  1425.7 14825.6    0.00 14825.6 14823.3    2.39
 2022 241   121       0   14258  148349       0  148349  148235   113.8    0.00  1425.7 14825.3    0.00 14825.3 14822.9    2.43
 2022 242   122       0   14258  148347       0  148347  148231   115.7    0.00  1425.6 14825.0    0.00 14825.0 14822.5    2.48
 2022 243   123       0   14258  148346       0  148346  148228   117.6    0.00  1425.6 14824.7    0.00 14824.7 14822.2    2.52
 2022 244   124       0   14258  148344       0  148344  148225   119.5    0.00  1425.6 14824.4    0.00 14824.4 14821.8    2.57
 2022 245   125       0   14257  148343       0  148343  148221   121.4    0.00  1425.5 14824.1    0.00 14824.1 14821.5    2.61
 2022 246   126       0   14257  148341       0  148341  148218   123.3    0.00  1425.5 14823.8    0.00 14823.8 14821.2    2.65
 2022 247   127       0   14257  148340       0  148340  148215   125.2    0.00  1425.5 14823.6    0.00 14823.6 14820.9    2.70
 2022 248   128       0   14257  148339       0  148339  148212   127.2    0.00  1425.5 14823.3    0.00 14823.3 14820.6    2.74
 2022 249   129       0   14256  148338       0  148338  148209   129.1    0.00  1425.5 14823.1    0.00 14823.1 14820.3    2.79
 2022 250   130       0   14256  148337       0  148337  148206   131.0    0.00  1425.4 14822.8    0.00 14822.8 14820.0    2.83
 2022 251   131       0   14256  148336       0  148336  148203   132.9    0.00  1425.4 14822.5    0.00 14822.5 14819.7    2.88
 2022 252   132       0   14256  148335       0  148335  148200   134.9    0.00  1425.4 14822.3    0.00 14822.3 14819.4    2.93
 2022 253   133       0   14256  148334       0  148334  148197   136.8    0.00  1425.4 14822.0    0.00 14822.0 14819.0    2.97
 2022 254   134       0   14255  148332       0  148332  148194   138.5    0.00  1425.4 14821.8    0.00 14821.8 14818.7    3.02
 2022 255   135       0   14255  148331       0  148331  148191   140.3    0.00  1425.3 14821.5    0.00 14821.5 14818.5    3.07
 2022 256   136       0   14255  148331       0  148331  148189   142.1    0.00  1425.3 14821.3    0.00 14821.3 14818.2    3.11
 2022 257   137       0   14255  148330       0  148330  148186   144.0    0.00  1425.3 14821.1    0.00 14821.1 14818.0    3.16
 2022 258   138       0   14255  148330       0  148330  148184   145.8    0.00  1425.3 14820.9    0.00 14820.9 14817.7    3.21
 2022 259   139       0   14255  148329       0  148329  148181   147.6    0.00  1425.3 14820.7    0.00 14820.7 14817.4    3.25
 2022 260   140       0   14254  148327       0  148327  148178   148.9    0.00  1425.2 14820.4    0.00 14820.4 14817.1    3.30
 2022 261   141       0   14254  148322       0  148322  148174   148.0    0.00  1425.2 14820.0    0.00 14820.0 14816.8    3.30
 2022 262   142       0   14253  148318       0  148318  148171   147.0    0.00  1425.1 14819.7    0.00 14819.7 14816.4    3.30
 2022 263   143       0   14253  148314       0  148314  148168   146.2    0.00  1425.1 14819.3    0.00 14819.3 14816.0    3.29
