*SOIL TEMPERATURE OUTPUT FILE (DAILY)

*DSSAT Cropping System Model Ver. 4.8.2.000 -release  MAR 13, 2025 05:16:48

*RUN   1        : silt_loam_13in_irr        MZCER048 UNLI2201    1
 MODEL          : MZCER048 - Maize
 EXPERIMENT     : UNLI2201 MZ IRRIGATED MAIZE PRODUCTION
 DATA PATH      :
 TREATMENT  1   : silt_loam_13in_irr        MZCER048
  
! TAV  =     9.9
! TAMP =    28.0
!               Temperature (oC) by soil depth (cm):
!               Surface     0-5    5-15   15-23   23-38   38-53   53-61   61-69   69-84   84-99  99-160
@YEAR DOY   DAS    TS0D    TS1D    TS2D    TS3D    TS4D    TS5D    TS6D    TS7D    TS8D    TS9D    TS10
 2022 121     1    10.3    10.1     9.8     9.3     8.8     8.2     7.8     7.5     7.2     6.7     6.4
 2022 122     2     9.2     9.0     8.7     8.3     7.8     7.3     6.9     6.6     6.3     6.0     5.7
 2022 123     3     8.0     7.9     7.6     7.3     6.8     6.3     6.0     5.8     5.5     5.2     4.9
 2022 124     4     7.2     7.1     6.8     6.5     6.1     5.7     5.4     5.2     4.9     4.6     4.4
 2022 125     5     7.2     7.1     6.8     6.4     6.1     5.6     5.3     5.1     4.9     4.6     4.4
 2022 126     6     8.2     8.1     7.8     7.4     7.0     6.5     6.2     5.9     5.7     5.3     5.1
 2022 127     7    10.8    10.7    10.3     9.9     9.3     8.7     8.3     8.0     7.6     7.2     6.8
 2022 128     8    13.5    13.4    12.9    12.4    11.8    11.0    10.5    10.1     9.7     9.1     8.6
 2022 129     9    15.6    15.4    14.9    14.3    13.6    12.7    12.1    11.7    11.2    10.6    10.0
 2022 130    10    16.8    16.6    16.0    15.4    14.6    13.7    13.1    12.6    12.1    11.4    10.8
 2022 131    11    18.3    18.1    17.5    16.8    16.0    15.0    14.3    13.8    13.2    12.5    11.8
 2022 132    12    19.1    18.9    18.3    17.6    16.7    15.7    14.9    14.4    13.8    13.0    12.3
 2022 133    13    18.5    18.3    17.7    17.1    16.2    15.2    14.5    14.0    13.4    12.6    11.9
 2022 134    14    18.3    18.1    17.5    16.8    16.0    15.0    14.3    13.8    13.2    12.5    11.8
 2022 135    15    18.4    18.2    17.6    16.9    16.1    15.1    14.4    13.9    13.3    12.5    11.8
 2022 136    16    17.5    17.3    16.8    16.1    15.3    14.4    13.7    13.2    12.7    11.9    11.3
 2022 137    17    17.6    17.4    16.8    16.2    15.4    14.4    13.8    13.3    12.7    12.0    11.3
 2022 138    18    18.6    18.3    17.8    17.1    16.3    15.3    14.6    14.1    13.5    12.7    12.0
 2022 139    19    19.5    19.3    18.7    18.0    17.1    16.1    15.3    14.9    14.2    13.4    12.7
 2022 140    20    18.2    18.0    17.4    16.7    15.9    15.0    14.3    13.8    13.2    12.5    11.8
 2022 141    21    15.8    15.6    15.1    14.6    13.9    13.0    12.4    12.0    11.5    10.8    10.2
 2022 142    22    12.9    12.7    12.3    11.8    11.3    10.6    10.1     9.7     9.3     8.8     8.3
 2022 143    23    10.8    10.7    10.3     9.9     9.4     8.8     8.4     8.1     7.8     7.3     6.9
 2022 144    24     8.7     8.6     8.3     8.0     7.6     7.1     6.7     6.5     6.2     5.9     5.6
 2022 145    25     9.5     9.4     9.1     8.7     8.3     7.8     7.4     7.2     6.9     6.5     6.2
 2022 146    26    11.3    11.2    10.8    10.4     9.9     9.3     8.9     8.6     8.2     7.8     7.4
 2022 147    27    13.9    13.8    13.3    12.8    12.2    11.5    11.0    10.6    10.2     9.6     9.1
 2022 148    28    16.2    16.1    15.6    15.0    14.3    13.5    12.9    12.5    11.9    11.3    10.7
 2022 149    29    18.6    18.4    17.9    17.2    16.4    15.5    14.8    14.3    13.7    13.0    12.3
 2022 150    30    18.9    18.7    18.1    17.5    16.7    15.7    15.0    14.6    13.9    13.2    12.5
 2022 151    31    18.6    18.4    17.9    17.2    16.5    15.5    14.9    14.4    13.8    13.0    12.4
 2022 152    32    17.4    17.3    16.8    16.2    15.5    14.6    13.9    13.5    12.9    12.2    11.6
 2022 153    33    16.2    16.0    15.5    15.0    14.3    13.5    12.9    12.5    12.0    11.4    10.8
 2022 154    34    15.2    15.1    14.6    14.1    13.5    12.7    12.2    11.8    11.3    10.7    10.2
 2022 155    35    16.5    16.4    15.9    15.3    14.7    13.8    13.3    12.9    12.3    11.7    11.1
 2022 156    36    17.8    17.7    17.2    16.6    15.9    15.0    14.3    13.9    13.3    12.6    12.0
 2022 157    37    19.3    19.1    18.6    18.0    17.2    16.2    15.6    15.1    14.5    13.7    13.0
 2022 158    38    19.9    19.7    19.1    18.5    17.7    16.7    16.0    15.5    14.9    14.1    13.4
 2022 159    39    20.1    19.9    19.4    18.7    17.9    17.0    16.3    15.8    15.2    14.4    13.6
 2022 160    40    20.1    19.9    19.4    18.7    17.9    17.0    16.3    15.8    15.1    14.4    13.6
 2022 161    41    20.2    20.0    19.4    18.8    18.0    17.0    16.3    15.9    15.2    14.4    13.7
 2022 162    42    21.0    20.8    20.3    19.6    18.8    17.8    17.0    16.6    15.9    15.1    14.3
 2022 163    43    22.9    22.7    22.1    21.4    20.5    19.4    18.6    18.0    17.3    16.4    15.5
 2022 164    44    25.6    25.3    24.6    23.8    22.8    21.6    20.7    20.1    19.3    18.3    17.3
 2022 165    45    26.2    26.0    25.3    24.4    23.4    22.1    21.2    20.6    19.8    18.7    17.7
 2022 166    46    26.4    26.2    25.4    24.6    23.6    22.3    21.4    20.8    19.9    18.9    17.9
 2022 167    47    25.5    25.3    24.6    23.8    22.8    21.6    20.7    20.1    19.3    18.2    17.3
 2022 168    48    26.1    25.8    25.1    24.3    23.3    22.0    21.1    20.5    19.7    18.6    17.7
 2022 169    49    26.0    25.7    25.0    24.2    23.2    22.0    21.1    20.4    19.6    18.6    17.6
 2022 170    50    27.3    27.0    26.3    25.4    24.4    23.0    22.1    21.4    20.6    19.5    18.5
 2022 171    51    28.7    28.5    27.7    26.8    25.7    24.3    23.3    22.6    21.6    20.5    19.4
 2022 172    52    28.4    28.1    27.3    26.4    25.3    24.0    23.0    22.3    21.4    20.2    19.2
 2022 173    53    26.5    26.3    25.6    24.7    23.7    22.4    21.5    20.9    20.0    19.0    18.0
 2022 174    54    25.7    25.5    24.8    24.0    23.0    21.8    20.9    20.3    19.5    18.5    17.5
 2022 175    55    24.7    24.5    23.9    23.1    22.2    21.0    20.1    19.6    18.8    17.8    16.9
 2022 176    56    22.8    22.6    22.0    21.3    20.5    19.4    18.6    18.1    17.4    16.5    15.7
 2022 177    57    22.1    21.9    21.3    20.7    19.9    18.8    18.1    17.6    16.9    16.0    15.2
 2022 178    58    22.3    22.1    21.6    20.9    20.1    19.1    18.3    17.8    17.1    16.2    15.4
 2022 179    59    21.8    21.6    21.1    20.4    19.6    18.6    17.9    17.4    16.7    15.9    15.1
 2022 180    60    22.5    22.3    21.7    21.0    20.2    19.2    18.4    17.9    17.2    16.3    15.5
 2022 181    61    23.9    23.7    23.1    22.3    21.5    20.3    19.5    19.0    18.2    17.3    16.4
 2022 182    62    25.5    25.2    24.6    23.8    22.9    21.7    20.8    20.2    19.4    18.4    17.4
 2022 183    63    25.6    25.4    24.7    24.0    23.0    21.8    20.9    20.3    19.5    18.5    17.5
 2022 184    64    26.3    26.1    25.5    24.7    23.8    22.6    21.8    21.2    20.4    19.4    18.4
 2022 185    65    26.1    25.9    25.3    24.6    23.7    22.5    21.7    21.1    20.3    19.4    18.4
 2022 186    66    26.4    26.2    25.6    24.8    23.9    22.7    21.9    21.3    20.5    19.5    18.5
 2022 187    67    26.3    26.1    25.5    24.9    24.0    22.9    22.1    21.5    20.8    19.8    18.9
 2022 188    68    26.7    26.5    25.9    25.2    24.3    23.2    22.4    21.8    21.0    20.1    19.1
 2022 189    69    26.2    26.0    25.5    24.8    23.9    22.9    22.1    21.6    20.8    19.9    19.0
 2022 190    70    26.2    26.0    25.4    24.7    23.9    22.8    22.0    21.5    20.7    19.8    18.9
 2022 191    71    26.5    26.3    25.7    25.0    24.1    23.1    22.2    21.7    20.9    20.0    19.0
 2022 192    72    26.0    25.8    25.2    24.6    23.7    22.6    21.8    21.3    20.5    19.6    18.7
 2022 193    73    25.6    25.4    24.8    24.1    23.3    22.3    21.5    20.9    20.2    19.3    18.4
 2022 194    74    25.9    25.7    25.2    24.5    23.6    22.6    21.8    21.2    20.5    19.5    18.6
 2022 195    75    26.4    26.2    25.6    25.0    24.1    23.0    22.2    21.6    20.8    19.8    18.9
 2022 196    76    25.6    25.5    24.9    24.2    23.4    22.3    21.5    21.0    20.2    19.3    18.4
 2022 197    77    26.8    26.6    26.0    25.3    24.4    23.2    22.4    21.8    21.0    20.0    19.1
 2022 198    78    27.6    27.4    26.7    26.0    25.1    23.9    23.0    22.4    21.6    20.6    19.6
 2022 199    79    28.0    27.8    27.1    26.4    25.4    24.2    23.3    22.7    21.9    20.8    19.8
 2022 200    80    26.9    26.7    26.1    25.4    24.5    23.3    22.5    21.9    21.1    20.1    19.1
 2022 201    81    26.4    26.2    25.6    24.9    24.1    22.9    22.1    21.5    20.7    19.7    18.8
 2022 202    82    26.5    26.3    25.7    25.0    24.1    23.0    22.2    21.6    20.8    19.8    18.8
 2022 203    83    26.8    26.6    26.1    25.4    24.5    23.5    22.6    22.1    21.3    20.3    19.4
 2022 204    84    26.9    26.7    26.1    25.5    24.6    23.5    22.6    22.1    21.3    20.3    19.3
 2022 205    85    26.5    26.3    25.7    25.1    24.2    23.1    22.2    21.7    20.9    19.9    18.9
 2022 206    86    25.7    25.5    25.0    24.3    23.5    22.4    21.6    21.1    20.3    19.4    18.4
 2022 207    87    24.7    24.5    24.0    23.5    22.7    21.7    21.0    20.5    19.8    18.9    18.0
 2022 208    88    23.5    23.4    22.9    22.4    21.7    20.8    20.1    19.6    19.0    18.1    17.3
 2022 209    89    21.5    21.4    21.1    20.7    20.2    19.5    18.9    18.6    18.0    17.3    16.7
 2022 210    90    21.1    21.0    20.7    20.3    19.8    19.2    18.6    18.3    17.8    17.1    16.4
 2022 211    91    21.5    21.4    21.1    20.7    20.2    19.5    19.0    18.6    18.0    17.3    16.7
 2022 212    92    22.1    22.0    21.7    21.2    20.7    19.9    19.4    19.0    18.4    17.7    16.9
 2022 213    93    23.1    23.0    22.6    22.1    21.5    20.7    20.1    19.7    19.1    18.3    17.5
 2022 214    94    25.0    24.8    24.4    23.8    23.1    22.2    21.5    21.0    20.3    19.5    18.6
 2022 215    95    25.9    25.7    25.3    24.7    23.9    23.0    22.2    21.7    21.0    20.1    19.2
 2022 216    96    26.6    26.4    25.9    25.3    24.5    23.5    22.8    22.2    21.5    20.5    19.6
 2022 217    97    27.4    27.3    26.7    26.1    25.3    24.2    23.4    22.8    22.1    21.1    20.1
 2022 218    98    27.3    27.2    26.6    26.0    25.2    24.1    23.3    22.8    22.0    21.0    20.0
 2022 219    99    25.1    25.0    24.6    24.0    23.3    22.4    21.7    21.2    20.5    19.6    18.8
 2022 220   100    23.9    23.8    23.4    22.9    22.3    21.5    20.9    20.4    19.8    19.0    18.1
 2022 221   101    23.9    23.8    23.4    23.0    22.4    21.5    20.9    20.5    19.8    19.0    18.2
 2022 222   102    23.2    23.1    22.7    22.3    21.7    21.0    20.4    19.9    19.3    18.5    17.8
 2022 223   103    23.1    23.0    22.7    22.3    21.7    20.9    20.3    19.9    19.3    18.5    17.8
 2022 224   104    25.0    24.9    24.5    24.0    23.3    22.4    21.7    21.3    20.6    19.7    18.8
 2022 225   105    26.2    26.0    25.6    25.0    24.3    23.3    22.6    22.1    21.3    20.4    19.5
 2022 226   106    26.4    26.2    25.8    25.2    24.5    23.5    22.7    22.2    21.5    20.5    19.6
 2022 227   107    26.0    25.8    25.4    24.9    24.2    23.2    22.5    22.0    21.2    20.3    19.4
 2022 228   108    24.5    24.4    24.0    23.6    23.0    22.3    21.7    21.2    20.6    19.8    19.0
 2022 229   109    23.1    23.0    22.7    22.4    21.9    21.2    20.7    20.3    19.7    19.0    18.3
 2022 230   110    22.5    22.4    22.1    21.8    21.4    20.7    20.2    19.8    19.3    18.6    17.9
 2022 231   111    21.2    21.2    21.0    20.7    20.4    19.8    19.4    19.0    18.5    17.9    17.2
 2022 232   112    20.1    20.1    20.0    19.8    19.4    19.0    18.6    18.3    17.9    17.3    16.7
 2022 233   113    20.9    20.8    20.7    20.4    20.1    19.6    19.2    18.8    18.4    17.7    17.1
 2022 234   114    21.2    21.2    21.0    20.8    20.4    19.9    19.4    19.1    18.6    18.0    17.3
 2022 235   115    21.2    21.2    21.0    20.8    20.4    19.9    19.5    19.1    18.7    18.0    17.4
 2022 236   116    21.8    21.8    21.6    21.3    21.0    20.4    19.9    19.6    19.1    18.4    17.7
 2022 237   117    23.4    23.3    23.1    22.8    22.3    21.6    21.1    20.7    20.1    19.4    18.6
 2022 238   118    24.2    24.1    23.8    23.5    23.0    22.2    21.7    21.2    20.6    19.8    19.0
 2022 239   119    25.0    24.9    24.6    24.2    23.6    22.9    22.2    21.8    21.2    20.3    19.5
 2022 240   120    25.5    25.4    25.1    24.7    24.1    23.3    22.7    22.2    21.6    20.7    19.8
 2022 241   121    25.2    25.1    24.8    24.4    23.9    23.1    22.5    22.0    21.4    20.5    19.7
 2022 242   122    24.2    24.1    23.9    23.5    23.0    22.4    21.8    21.4    20.8    20.0    19.2
 2022 243   123    24.0    23.9    23.7    23.4    22.9    22.2    21.7    21.3    20.7    19.9    19.1
 2022 244   124    23.2    23.2    23.0    22.7    22.3    21.7    21.2    20.8    20.3    19.5    18.8
 2022 245   125    23.0    23.0    22.8    22.5    22.1    21.6    21.1    20.7    20.2    19.5    18.7
 2022 246   126    22.6    22.6    22.4    22.2    21.8    21.3    20.8    20.5    20.0    19.3    18.6
 2022 247   127    22.1    22.1    21.9    21.7    21.4    20.9    20.5    20.2    19.7    19.0    18.3
 2022 248   128    21.6    21.6    21.5    21.3    21.1    20.6    20.2    19.9    19.4    18.8    18.1
 2022 249   129    22.2    22.1    22.0    21.8    21.5    21.1    20.6    20.3    19.8    19.1    18.4
 2022 250   130    21.7    21.7    21.6    21.5    21.2    20.8    20.3    20.0    19.6    18.9    18.3
 2022 251   131    23.4    23.3    23.2    22.9    22.6    22.0    21.5    21.2    20.6    19.9    19.1
 2022 252   132    22.7    22.7    22.6    22.4    22.1    21.6    21.1    20.8    20.3    19.6    18.8
 2022 253   133    20.9    20.9    20.9    20.8    20.6    20.2    19.9    19.6    19.2    18.6    18.0
 2022 254   134    18.5    18.6    18.7    18.7    18.7    18.5    18.3    18.2    17.9    17.5    17.0
 2022 255   135    17.5    17.6    17.7    17.8    17.9    17.8    17.7    17.5    17.3    16.9    16.5
 2022 256   136    15.8    15.8    16.1    16.3    16.4    16.5    16.5    16.4    16.3    16.0    15.7
 2022 257   137    17.7    17.7    17.9    18.0    18.1    18.0    17.9    17.7    17.5    17.1    16.7
 2022 258   138    19.6    19.6    19.7    19.7    19.6    19.4    19.2    19.0    18.7    18.2    17.7
 2022 259   139    20.9    20.9    20.9    20.9    20.8    20.5    20.2    19.9    19.6    19.0    18.4
 2022 260   140    21.6    21.6    21.6    21.5    21.4    21.1    20.9    20.6    20.3    19.8    19.3
 2022 261   141    22.1    22.1    22.0    22.0    21.8    21.5    21.2    20.9    20.6    20.0    19.5
 2022 262   142    21.8    21.8    21.8    21.7    21.6    21.3    21.0    20.7    20.4    19.8    19.2
 2022 263   143    21.8    21.8    21.8    21.8    21.6    21.3    21.0    20.8    20.4    19.9    19.3
