*SOIL-PLANT-ATMOSPHERE MODULE OUTPUT FILE

*DSSAT Cropping System Model Ver. 4.8.2.000 -release  APR 10, 2025 14:33:56

*RUN   1        : farm_23                   MZCER048 UNLI2309    1
 MODEL          : MZCER048 - Maize
 EXPERIMENT     : UNLI2309 MZ PIO1366
 DATA PATH      :
 TREATMENT  1   : farm_23                   MZCER048
  
@YEAR DOY   DAS   SRAA  TMAXA  TMINA    REFA    EOAA    EOPA    EOSA    ETAA    EPAA    ESAA    EFAA    EMAA    EOAC    ETAC    EPAC    ESAC    EFAC    EMAC    KCAA    KBSA    KEAA
 2020 110     1  23.50  16.50   0.00   1.924   2.318   0.000   2.318   0.859   0.000   0.282   0.000   0.578    2.32    0.86    0.00    0.28    0.00    0.58   0.447   0.000   0.447 
 2020 111     2  22.70  18.90   1.60   1.651   1.990   0.000   1.990   0.947   0.000   0.000   0.000   0.947    4.31    1.81    0.00    0.28    0.00    1.52   0.574   0.000   0.574 
 2020 112     3  25.00  23.10  -2.00   1.676   2.020   0.000   2.020   1.119   0.000   0.000   0.000   1.119    6.33    2.93    0.00    0.28    0.00    2.64   0.668   0.000   0.668 
 2020 113     4  23.80  24.10   4.00   1.809   2.180   0.000   2.180   0.246   0.000   0.030   0.000   0.215    8.51    3.17    0.00    0.31    0.00    2.86   0.136   0.000   0.136 
 2020 114     5  22.40  23.30   2.30   1.694   2.041   0.000   2.041   0.230   0.000   0.189   0.000   0.041   10.55    3.40    0.00    0.50    0.00    2.90   0.136   0.000   0.136 
 2020 115     6  12.80  15.30   6.00   1.299   1.557   0.000   1.557   0.775   0.000   0.000   0.000   0.775   12.11    4.18    0.00    0.50    0.00    3.68   0.597   0.000   0.597 
 2020 116     7  25.80  17.40   2.70   1.838   2.215   0.000   2.215   1.965   0.000   0.000   0.000   1.965   14.32    6.14    0.00    0.50    0.00    5.64   1.069   0.000   1.069 
 2020 117     8  24.10  25.10   2.10   1.800   2.169   0.000   2.169   0.647   0.000   0.000   0.000   0.647   16.49    6.79    0.00    0.50    0.00    6.29   0.359   0.000   0.359 
 2020 118     9  26.30  27.00   7.30   2.073   2.499   0.000   2.499   0.282   0.000   0.157   0.000   0.124   18.99    7.07    0.00    0.66    0.00    6.41   0.136   0.000   0.136 
 2020 119    10  22.20  20.50  10.30   1.967   2.366   0.000   2.366   0.267   0.000   0.243   0.000   0.024   21.35    7.34    0.00    0.90    0.00    6.44   0.136   0.000   0.136 
 2020 120    11  27.50  20.90   6.40   2.048   2.468   0.000   2.468   0.278   0.000   0.274   0.000   0.005   23.82    7.61    0.00    1.17    0.00    6.44   0.136   0.000   0.136 
 2020 121    12  25.70  28.10   1.20   1.969   2.374   0.000   2.374   0.267   0.000   0.267   0.000   0.001   26.20    7.88    0.00    1.44    0.00    6.44   0.136   0.000   0.136 
 2020 122    13  26.30  29.20  12.40   2.257   2.720   0.000   2.720   0.307   0.000   0.306   0.000   0.000   28.92    8.19    0.00    1.75    0.00    6.44   0.136   0.000   0.136 
 2020 123    14  15.30  16.90  10.70   1.619   1.934   0.000   1.934   0.218   0.000   0.218   0.000   0.000   30.85    8.41    0.00    1.96    0.00    6.44   0.135   0.000   0.135 
 2020 124    15  20.30  21.70   6.70   1.866   2.244   0.000   2.244   1.992   0.000   0.000   0.000   1.992   33.10   10.40    0.00    1.96    0.00    8.43   1.067   0.000   1.067 
 2020 125    16   9.10  14.00   6.50   1.130   1.351   0.000   1.351   1.199   0.000   0.000   0.000   1.199   34.45   11.60    0.00    1.96    0.00    9.63   1.061   0.000   1.061 
 2020 126    17  24.30  19.20   4.30   1.953   2.353   0.000   2.353   2.088   0.000   0.000   0.000   2.088   36.80   13.68    0.00    1.96    0.00   11.72   1.069   0.000   1.069 
 2020 127    18  25.70  16.60   1.50   1.901   2.289   0.000   2.289   1.208   0.000   0.000   0.000   1.208   39.09   14.89    0.00    1.96    0.00   12.93   0.636   0.000   0.636 
 2020 128    19  27.00  20.60   4.90   2.131   2.569   0.000   2.569   0.289   0.000   0.057   0.000   0.232   41.66   15.18    0.00    2.02    0.00   13.16   0.136   0.000   0.136 
 2020 129    20  29.00  15.10   3.40   2.105   2.534   0.000   2.534   0.286   0.000   0.241   0.000   0.045   44.19   15.47    0.00    2.26    0.00   13.20   0.136   0.000   0.136 
 2020 130    21  17.70  15.10   2.30   1.529   1.843   0.000   1.843   0.208   0.000   0.199   0.000   0.009   46.03   15.68    0.00    2.46    0.00   13.21   0.136   0.000   0.136 
 2020 131    22  25.40  12.30  -2.30   1.731   2.084   0.000   2.084   0.235   0.000   0.233   0.000   0.002   48.12   15.91    0.00    2.70    0.00   13.21   0.136   0.000   0.136 
 2020 132    23   4.70   4.70   1.40   0.449   0.534   0.000   0.534   0.060   0.000   0.060   0.000   0.000   48.65   15.97    0.00    2.76    0.00   13.22   0.134   0.000   0.134 
 2020 133    24   6.80   8.00   2.10   0.728   0.867   0.000   0.867   0.098   0.000   0.098   0.000   0.000   49.52   16.07    0.00    2.85    0.00   13.22   0.134   0.000   0.134 
 2020 134    25  11.40  14.60   5.90   1.293   1.546   0.000   1.546   0.174   0.000   0.174   0.000   0.000   51.07   16.24    0.00    3.03    0.00   13.22   0.135   0.000   0.135 
 2020 135    26  25.60  23.70   4.80   2.190   2.639   0.000   2.639   0.297   0.000   0.297   0.000   0.000   53.70   16.54    0.00    3.32    0.00   13.22   0.136   0.000   0.136 
 2020 136    27  12.70  19.60   8.30   1.477   1.773   0.000   1.773   0.200   0.000   0.200   0.000   0.000   55.48   16.74    0.00    3.52    0.00   13.22   0.135   0.000   0.135 
 2020 137    28  17.90  20.00   9.70   1.872   2.245   0.000   2.245   1.992   0.000   0.000   0.000   1.992   57.72   18.73    0.00    3.52    0.00   15.21   1.064   0.000   1.064 
 2020 138    29  22.10  17.50   5.00   1.963   2.358   0.000   2.358   1.218   0.000   0.000   0.000   1.218   60.08   19.95    0.00    3.52    0.00   16.43   0.620   0.000   0.620 
 2020 139    30  26.10  20.80   2.50   2.161   2.603   0.000   2.603   0.293   0.000   0.059   0.000   0.234   62.68   20.24    0.00    3.58    0.00   16.66   0.136   0.000   0.136 
 2020 140    31  27.80  23.80   7.20   2.512   3.023   0.000   3.023   0.341   0.000   0.296   0.000   0.045   65.71   20.58    0.00    3.88    0.00   16.70   0.136   0.000   0.136 
 2020 141    32  27.70  24.10  11.50   4.231   5.083   0.006   5.077   0.578   0.006   0.563   0.000   0.009   70.79   21.16    0.01    4.44    0.00   16.71   0.137   0.001   0.135 
 2020 142    33   6.60  17.10  13.20   1.255   1.486   0.003   1.483   0.170   0.003   0.165   0.000   0.002   72.28   21.33    0.01    4.61    0.00   16.71   0.136   0.003   0.133 
 2020 143    34  14.50  20.80  13.00   2.562   3.055   0.009   3.046   1.545   0.009   0.000   0.000   1.535   75.33   22.88    0.02    4.61    0.00   18.25   0.603   0.004   0.599 
 2020 144    35  21.80  23.90   9.20   3.412   4.103   0.017   4.087   0.542   0.017   0.000   0.000   0.526   79.43   23.42    0.04    4.61    0.00   18.78   0.159   0.005   0.154 
 2020 145    36  16.60  21.60  10.30   2.754   3.305   0.017   3.288   2.651   0.017   0.000   0.000   2.634   82.74   26.07    0.05    4.61    0.00   21.41   0.962   0.006   0.956 
 2020 146    37  17.30  18.00   5.40   2.572   3.094   0.019   3.075   0.526   0.019   0.000   0.000   0.507   85.83   26.60    0.07    4.61    0.00   21.92   0.205   0.008   0.197 
 2020 147    38  28.10  23.90   3.60   3.786   4.578   0.031   4.547   2.880   0.031   0.000   0.000   2.848   90.41   29.48    0.10    4.61    0.00   24.76   0.761   0.008   0.752 
 2020 148    39  29.20  26.90   6.20   4.132   4.998   0.037   4.961   0.596   0.037   0.011   0.000   0.548   95.41   30.07    0.14    4.62    0.00   25.31   0.144   0.009   0.135 
 2020 149    40  24.90  24.90   9.20   3.778   4.562   0.042   4.521   0.551   0.042   0.404   0.000   0.105   99.97   30.62    0.18    5.02    0.00   25.42   0.146   0.011   0.135 
 2020 150    41  27.50  25.70   9.80   4.138   4.998   0.054   4.944   0.611   0.054   0.537   0.000   0.020  104.97   31.23    0.24    5.56    0.00   25.44   0.148   0.013   0.135 
 2020 151    42  26.80  24.70  14.60   4.332   5.198   0.087   5.111   0.663   0.087   0.572   0.000   0.004  110.17   31.90    0.32    6.13    0.00   25.44   0.153   0.020   0.133 
 2020 152    43  25.40  31.10  12.10   4.176   5.064   0.120   4.944   0.734   0.120   0.000   0.000   0.615  115.23   32.63    0.44    6.13    0.00   26.06   0.176   0.029   0.147 
 2020 153    44  25.40  34.50  18.80   4.394   5.340   0.178   5.162   0.760   0.178   0.463   0.000   0.118  120.57   33.39    0.62    6.60    0.00   26.17   0.173   0.041   0.132 
 2020 154    45  24.10  35.00  14.00   4.071   4.954   0.237   4.717   0.768   0.237   0.509   0.000   0.023  125.53   34.16    0.86    7.10    0.00   26.20   0.189   0.058   0.131 
 2020 155    46  25.40  30.80  12.20   4.168   5.072   0.315   4.756   0.851   0.315   0.532   0.000   0.004  130.60   35.01    1.17    7.64    0.00   26.20   0.204   0.076   0.129 
 2020 156    47  26.60  35.00  11.10   4.231   5.159   0.386   4.773   0.924   0.386   0.537   0.000   0.001  135.76   35.93    1.56    8.17    0.00   26.20   0.218   0.091   0.127 
 2020 157    48  29.10  32.70  14.30   4.764   5.815   0.543   5.272   1.137   0.543   0.594   0.000   0.000  141.57   37.07    2.10    8.77    0.00   26.20   0.239   0.114   0.125 
 2020 158    49  21.60  34.00  22.10   4.125   5.002   0.571   4.431   1.071   0.571   0.499   0.000   0.000  146.57   38.14    2.67    9.27    0.00   26.20   0.260   0.138   0.121 
 2020 159    50  27.40  34.10  24.00   5.082   6.172   0.867   5.305   1.865   0.867   0.000   0.000   0.998  152.75   40.01    3.54    9.27    0.00   27.20   0.367   0.171   0.196 
 2020 160    51  25.30  31.10  18.10   4.537   5.474   0.941   4.533   1.452   0.941   0.319   0.000   0.192  158.22   41.46    4.48    9.58    0.00   27.39   0.320   0.207   0.113 
 2020 161    52   4.10  18.00  11.40   0.786   0.920   0.187   0.734   0.838   0.187   0.000   0.000   0.651  159.14   42.30    4.67    9.58    0.00   28.04   1.065   0.238   0.828 
 2020 162    53  29.40  24.70   8.30   4.263   5.226   1.042   4.185   3.498   1.042   0.000   0.000   2.456  164.37   45.79    5.71    9.58    0.00   30.50   0.820   0.244   0.576 
 2020 163    54  29.20  29.80   6.00   4.213   5.170   1.084   4.085   1.557   1.084   0.000   0.000   0.472  169.54   47.35    6.79    9.58    0.00   30.97   0.369   0.257   0.112 
 2020 164    55  29.30  32.60  10.30   4.502   5.529   1.254   4.275   1.606   1.254   0.262   0.000   0.091  175.06   48.96    8.05    9.85    0.00   31.06   0.357   0.279   0.078 
 2020 165    56  28.60  31.60  12.90   4.594   5.645   1.401   4.244   1.880   1.401   0.461   0.000   0.017  180.71   50.84    9.45   10.31    0.00   31.08   0.409   0.305   0.104 
 2020 166    57  22.60  35.90  21.20   4.128   5.076   1.358   3.719   1.777   1.358   0.416   0.000   0.003  185.79   52.61   10.81   10.72    0.00   31.08   0.430   0.329   0.102 
 2020 167    58  26.60  35.30  20.60   4.579   5.634   1.634   4.001   2.084   1.634   0.450   0.000   0.001  191.42   54.70   12.44   11.17    0.00   31.08   0.455   0.357   0.098 
 2020 168    59  28.10  34.70  19.30   4.824   5.941   1.864   4.077   2.324   1.864   0.459   0.000   0.000  197.36   57.02   14.30   11.63    0.00   31.08   0.482   0.386   0.095 
 2020 169    60  27.00  35.90  20.10   4.800   5.915   1.998   3.917   2.439   1.998   0.441   0.000   0.000  203.28   59.46   16.30   12.07    0.00   31.08   0.508   0.416   0.092 
 2020 170    61  19.10  24.90  15.40   3.320   4.021   1.482   2.539   1.768   1.482   0.286   0.000   0.000  207.30   61.23   17.78   12.36    0.00   31.08   0.532   0.446   0.086 
 2020 171    62  15.10  23.20  13.60   2.714   3.242   1.239   2.002   1.465   1.239   0.226   0.000   0.000  210.54   62.69   19.02   12.59    0.00   31.08   0.540   0.457   0.083 
 2020 172    63  24.10  29.10  11.70   3.940   4.840   1.816   3.025   3.581   1.816   0.000   0.000   1.765  215.38   66.27   20.84   12.59    0.00   32.85   0.909   0.461   0.448 
 2020 173    64  20.70  30.70  15.90   3.703   4.523   1.729   2.794   2.069   1.729   0.000   0.000   0.339  219.90   68.34   22.57   12.59    0.00   33.19   0.559   0.467   0.092 
 2020 174    65  25.10  28.20  11.70   4.044   4.963   1.938   3.025   2.279   1.938   0.276   0.000   0.065  224.87   70.62   24.51   12.86    0.00   33.25   0.563   0.479   0.084 
 2020 175    66  25.60  28.40   8.80   3.963   4.892   1.922   2.969   3.700   1.922   0.000   0.000   1.778  229.76   74.32   26.43   12.86    0.00   35.03   0.934   0.485   0.449 
 2020 176    67  27.90  32.10  14.80   4.648   5.723   2.263   3.459   2.653   2.263   0.048   0.000   0.342  235.48   76.97   28.69   12.91    0.00   35.37   0.571   0.487   0.084 
 2020 177    68  22.50  34.80  18.10   4.089   5.037   2.018   3.019   2.358   2.018   0.274   0.000   0.066  240.52   79.33   30.71   13.18    0.00   35.44   0.577   0.494   0.083 
 2020 178    69  27.30  30.10  18.60   4.817   5.804   2.421   3.383   3.815   2.421   0.000   0.000   1.394  246.32   83.15   33.13   13.18    0.00   36.83   0.792   0.502   0.289 
 2020 179    70  26.70  33.00  17.10   4.654   5.706   2.362   3.344   2.860   2.362   0.000   0.000   0.498  252.03   86.01   35.49   13.18    0.00   37.33   0.615   0.507   0.107 
 2020 180    71  27.30  35.30  17.60   4.778   5.895   2.573   3.321   2.948   2.573   0.278   0.000   0.096  257.92   88.95   38.07   13.46    0.00   37.43   0.617   0.539   0.078 
 2020 181    72  26.30  35.80  22.00   4.981   6.065   2.739   3.326   3.114   2.739   0.356   0.000   0.018  263.99   92.07   40.80   13.82    0.00   37.45   0.625   0.550   0.075 
 2020 182    73  25.40  28.30   9.70   3.975   4.914   2.197   2.718   2.503   2.197   0.303   0.000   0.004  268.90   94.57   43.00   14.12    0.00   37.45   0.630   0.553   0.077 
 2020 183    74  29.10  31.80   7.80   4.297   5.311   2.338   2.973   2.673   2.338   0.334   0.000   0.001  274.21   97.24   45.34   14.46    0.00   37.45   0.622   0.544   0.078 
 2020 184    75  20.20  33.30  16.00   3.703   4.544   1.980   2.564   2.269   1.980   0.289   0.000   0.000  278.76   99.51   47.32   14.74    0.00   37.45   0.613   0.535   0.078 
 2020 185    76  28.10  32.90  17.30   4.768   5.874   2.513   3.361   2.891   2.513   0.379   0.000   0.000  284.63  102.40   49.83   15.12    0.00   37.45   0.606   0.527   0.079 
 2020 186    77  28.00  32.60  16.20   4.796   5.877   2.490   3.388   2.871   2.490   0.382   0.000   0.000  290.51  105.28   52.32   15.50    0.00   37.45   0.599   0.519   0.080 
 2020 187    78  23.60  32.70  17.90   4.240   5.180   2.165   3.015   2.504   2.165   0.340   0.000   0.000  295.69  107.78   54.49   15.84    0.00   37.45   0.591   0.511   0.080 
 2020 188    79  27.10  33.80  19.40   4.839   5.913   2.429   3.484   2.822   2.429   0.393   0.000   0.000  301.60  110.60   56.92   16.24    0.00   37.45   0.583   0.502   0.081 
 2020 189    80  27.50  35.30  20.60   5.005   6.131   2.472   3.659   2.885   2.472   0.412   0.000   0.000  307.73  113.49   59.39   16.65    0.00   37.45   0.576   0.494   0.082 
 2020 190    81  25.90  35.50  19.50   4.628   5.709   2.250   3.458   2.640   2.250   0.390   0.000   0.000  313.44  116.13   61.64   17.04    0.00   37.45   0.570   0.486   0.084 
 2020 191    82  27.00  30.50  14.20   4.444   5.453   2.126   3.327   4.659   2.126   0.000   0.000   2.533  318.89  120.79   63.76   17.04    0.00   39.98   1.048   0.478   0.570 
 2020 192    83  25.60  32.20  17.20   4.530   5.516   2.124   3.392   2.905   2.124   0.000   0.000   0.781  324.41  123.69   65.89   17.04    0.00   40.76   0.641   0.469   0.172 
 2020 193    84  26.10  29.10  16.50   4.424   5.363   2.037   3.326   2.412   2.037   0.225   0.000   0.150  329.77  126.10   67.92   17.26    0.00   40.91   0.545   0.460   0.085 
 2020 194    85  24.50  32.80  13.30   4.091   5.057   1.847   3.209   2.209   1.847   0.333   0.000   0.029  334.83  128.31   69.77   17.60    0.00   40.94   0.540   0.452   0.088 
 2020 195    86  23.10  35.00  18.60   4.206   5.164   1.865   3.300   2.236   1.865   0.366   0.000   0.006  339.99  130.55   71.64   17.96    0.00   40.95   0.532   0.443   0.088 
 2020 196    87  16.00  24.20  16.30   2.947   3.457   1.288   2.169   3.212   1.288   0.000   0.000   1.925  343.45  133.76   72.92   17.96    0.00   42.87   1.090   0.437   0.653 
 2020 197    88  23.30  26.00  19.70   4.164   4.887   1.784   3.103   3.056   1.784   0.000   0.000   1.273  348.34  136.82   74.71   17.96    0.00   44.15   0.734   0.428   0.306 
 2020 198    89  25.30  32.20  18.40   4.573   5.522   1.899   3.623   2.307   1.899   0.163   0.000   0.245  353.86  139.12   76.61   18.13    0.00   44.39   0.505   0.415   0.089 
 2020 199    90  27.60  35.10  21.40   5.062   6.155   2.038   4.117   2.502   2.038   0.417   0.000   0.047  360.01  141.63   78.65   18.54    0.00   44.44   0.494   0.403   0.092 
 2020 200    91  17.00  30.80  18.10   3.248   3.918   1.268   2.650   1.566   1.268   0.290   0.000   0.009  363.93  143.19   79.91   18.83    0.00   44.45   0.482   0.390   0.092 
 2020 201    92  23.80  30.80  16.10   4.111   5.003   1.555   3.448   1.943   1.555   0.387   0.000   0.002  368.93  145.14   81.47   19.22    0.00   44.45   0.473   0.378   0.095 
 2020 202    93  21.00  29.00  18.40   3.825   4.563   1.401   3.162   1.758   1.401   0.356   0.000   0.000  373.50  146.89   82.87   19.58    0.00   44.45   0.460   0.366   0.093 
 2020 203    94  26.60  28.30  13.20   4.269   5.196   1.515   3.681   1.930   1.515   0.184   0.000   0.230  378.69  148.82   84.38   19.76    0.00   44.68   0.452   0.355   0.097 
 2020 204    95  26.70  30.90  19.30   4.790   5.728   1.647   4.081   2.107   1.647   0.416   0.000   0.044  384.42  150.93   86.03   20.18    0.00   44.72   0.440   0.344   0.096 
 2020 205    96  19.30  32.40  21.20   3.758   4.510   1.252   3.258   1.619   1.252   0.359   0.000   0.009  388.93  152.55   87.28   20.53    0.00   44.73   0.431   0.333   0.098 
 2020 206    97  23.00  34.90  20.80   4.336   5.263   1.399   3.864   1.834   1.399   0.434   0.000   0.002  394.19  154.38   88.68   20.97    0.00   44.73   0.423   0.323   0.100 
 2020 207    98  27.20  33.90  20.00   4.883   5.916   1.526   4.390   4.353   1.526   0.000   0.000   2.827  400.11  158.74   90.21   20.97    0.00   47.56   0.891   0.313   0.579 
 2020 208    99   7.90  24.50  19.80   1.728   1.942   0.523   1.419   1.068   0.523   0.000   0.000   0.545  402.05  159.80   90.73   20.97    0.00   48.11   0.618   0.303   0.315 
 2020 209   100  22.60  27.60  18.80   4.044   4.762   1.185   3.577   1.589   1.185   0.298   0.000   0.105  406.81  161.39   91.92   21.27    0.00   48.21   0.393   0.293   0.100 
 2020 210   101  26.30  29.90  19.10   4.615   5.518   1.310   4.208   1.784   1.310   0.454   0.000   0.020  412.33  163.18   93.23   21.72    0.00   48.23   0.387   0.284   0.103 
 2020 211   102  25.40  31.00  17.40   4.366   5.282   1.200   4.082   1.660   1.200   0.456   0.000   0.004  417.61  164.84   94.43   22.18    0.00   48.23   0.380   0.275   0.105 
 2020 212   103  11.60  24.00  15.00   2.248   2.633   0.598   2.034   2.403   0.598   0.000   0.000   1.805  420.25  167.24   95.02   22.18    0.00   50.04   1.069   0.266   0.803 
 2020 213   104  24.90  27.90  11.70   3.898   4.750   1.005   3.745   2.377   1.005   0.000   0.000   1.372  425.00  169.62   96.03   22.18    0.00   51.41   0.610   0.258   0.352 
 2020 214   105  25.50  27.40  17.30   4.287   5.107   1.070   4.038   1.525   1.070   0.191   0.000   0.264  430.10  171.14   97.10   22.37    0.00   51.68   0.356   0.250   0.106 
 2020 215   106  26.80  24.20  11.60   4.002   4.832   0.967   3.865   2.936   0.967   0.000   0.000   1.969  434.93  174.08   98.07   22.37    0.00   53.65   0.734   0.242   0.492 
 2020 216   107  21.30  24.40  11.30   3.333   4.020   0.779   3.240   1.158   0.779   0.000   0.000   0.379  438.95  175.24   98.85   22.37    0.00   54.02   0.347   0.234   0.114 
 2020 217   108  17.00  23.10  15.40   2.950   3.456   0.668   2.789   0.982   0.668   0.241   0.000   0.073  442.41  176.22   99.51   22.61    0.00   54.10   0.333   0.226   0.107 
 2020 218   109  25.70  29.60  14.30   4.151   5.041   0.909   4.132   1.375   0.909   0.452   0.000   0.014  447.45  177.59  100.42   23.06    0.00   54.11   0.331   0.219   0.112 
 2020 219   110  23.40  30.10  16.60   3.985   4.805   0.845   3.960   1.291   0.845   0.444   0.000   0.003  452.26  178.88  101.27   23.50    0.00   54.11   0.324   0.212   0.112 
 2020 220   111  23.90  33.90  20.00   4.257   5.174   0.873   4.301   1.358   0.873   0.484   0.000   0.001  457.43  180.24  102.14   23.99    0.00   54.11   0.319   0.205   0.114 
 2020 221   112  20.10  32.60  16.00   3.510   4.281   0.697   3.584   1.101   0.697   0.404   0.000   0.000  461.71  181.34  102.84   24.39    0.00   54.11   0.314   0.198   0.115 
 2020 222   113  24.70  34.50  14.00   3.967   4.903   0.762   4.142   2.527   0.762   0.000   0.000   1.765  466.61  183.87  103.60   24.39    0.00   55.88   0.637   0.192   0.445 
 2020 223   114  24.80  27.10  16.90   4.058   4.846   0.754   4.091   1.215   0.754   0.122   0.000   0.339  471.46  185.08  104.35   24.51    0.00   56.22   0.299   0.186   0.114 
 2020 224   115  22.40  32.00  15.10   3.712   4.543   0.668   3.876   1.104   0.668   0.371   0.000   0.065  476.00  186.19  105.02   24.88    0.00   56.28   0.298   0.180   0.118 
 2020 225   116  23.20  31.90  17.60   3.874   4.725   0.675   4.051   1.131   0.675   0.444   0.000   0.013  480.73  187.32  105.69   25.33    0.00   56.30   0.292   0.174   0.118 
 2020 226   117  25.00  33.20  19.70   4.362   5.273   0.735   4.538   1.247   0.735   0.509   0.000   0.002  486.00  188.57  106.43   25.84    0.00   56.30   0.286   0.169   0.117 
 2020 227   118  24.40  28.10  14.90   3.876   4.683   0.633   4.051   1.089   0.633   0.456   0.000   0.000  490.69  189.66  107.06   26.29    0.00   56.30   0.281   0.163   0.118 
 2020 228   119  20.20  28.30  10.80   3.106   3.822   0.491   3.330   0.866   0.491   0.375   0.000   0.000  494.51  190.52  107.55   26.67    0.00   56.30   0.279   0.158   0.121 
 2020 229   120  19.00  33.60  15.60   3.209   3.955   0.491   3.463   0.882   0.491   0.390   0.000   0.000  498.46  191.40  108.05   27.06    0.00   56.30   0.275   0.153   0.122 
 2020 230   121  24.40  31.50  10.60   3.572   4.415   0.530   3.885   0.968   0.530   0.438   0.000   0.000  502.88  192.37  108.58   27.50    0.00   56.30   0.271   0.148   0.123 
 2020 231   122  22.80  33.50  17.60   3.677   4.539   0.529   4.010   0.981   0.529   0.452   0.000   0.000  507.42  193.35  109.10   27.95    0.00   56.30   0.267   0.144   0.123 
 2020 232   123  17.50  30.30  18.60   3.058   3.709   0.426   3.282   0.652   0.426   0.226   0.000   0.000  511.12  194.00  109.53   28.17    0.00   56.30   0.213   0.139   0.074 
 2020 233   124  19.70  33.20  17.50   3.319   4.071   0.448   3.623   0.857   0.448   0.408   0.000   0.000  515.20  194.86  109.98   28.58    0.00   56.30   0.258   0.135   0.123 
 2020 234   125  21.30  33.20  17.40   3.496   4.294   0.458   3.836   0.890   0.458   0.432   0.000   0.000  519.49  195.75  110.44   29.01    0.00   56.30   0.255   0.131   0.124 
 2020 235   126  20.80  34.80  15.60   3.369   4.164   0.428   3.736   0.849   0.428   0.421   0.000   0.000  523.65  196.60  110.87   29.44    0.00   56.30   0.252   0.127   0.125 
 2020 236   127  21.50  35.50  15.90   3.444   4.257   0.425   3.832   0.857   0.425   0.432   0.000   0.000  527.91  197.46  111.29   29.87    0.00   56.30   0.249   0.123   0.125 
 2020 237   128  20.60  35.90  20.00   3.425   4.234   0.410   3.824   0.841   0.410   0.431   0.000   0.000  532.14  198.30  111.70   30.30    0.00   56.30   0.246   0.120   0.126 
 2020 238   129  21.30  36.20  18.90   3.467   4.286   0.403   3.883   0.841   0.403   0.437   0.000   0.000  536.43  199.14  112.10   30.74    0.00   56.30   0.243   0.116   0.126 
 2020 239   130  21.50  35.40  19.60   3.436   4.247   0.389   3.859   0.823   0.389   0.435   0.000   0.000  540.68  199.96  112.49   31.17    0.00   56.30   0.240   0.113   0.127 
 2020 240   131  20.40  35.60  17.00   3.237   4.001   0.356   3.645   0.767   0.356   0.411   0.000   0.000  544.68  200.73  112.85   31.58    0.00   56.30   0.237   0.110   0.127 
 2020 241   132  19.00  29.30  16.00   3.045   3.703   0.326   3.377   0.706   0.326   0.381   0.000   0.000  548.38  201.44  113.17   31.96    0.00   56.30   0.232   0.107   0.125 
 2020 242   133  21.60  27.50   8.90   2.948   3.643   0.307   3.336   0.683   0.307   0.376   0.000   0.000  552.02  202.12  113.48   32.34    0.00   56.30   0.232   0.104   0.127 
 2020 243   134  20.80  33.70  17.70   3.344   4.111   0.339   3.772   0.764   0.339   0.425   0.000   0.000  556.14  202.88  113.82   32.76    0.00   56.30   0.229   0.101   0.127 
 2020 244   135  22.40  22.90  12.10   2.899   3.569   0.286   3.282   0.656   0.286   0.370   0.000   0.000  559.70  203.54  114.11   33.13    0.00   56.30   0.226   0.099   0.128 
 2020 245   136  21.70  28.50  10.10   2.895   3.578   0.279   3.300   0.650   0.279   0.372   0.000   0.000  563.28  204.19  114.38   33.50    0.00   56.30   0.225   0.096   0.128 
 2020 246   137  22.70  31.20   6.30   2.835   3.505   0.266   3.239   0.631   0.266   0.365   0.000   0.000  566.79  204.82  114.65   33.87    0.00   56.30   0.223   0.094   0.129 
 2020 247   138  21.90  26.30  14.90   3.000   3.686   0.274   3.411   0.659   0.274   0.384   0.000   0.000  570.47  205.48  114.93   34.25    0.00   56.30   0.220   0.092   0.128 
 2020 248   139  21.80  31.90  14.00   3.020   3.733   0.270   3.464   0.660   0.270   0.390   0.000   0.000  574.21  206.14  115.19   34.64    0.00   56.30   0.218   0.089   0.129 
 2020 249   140  21.10  37.50  10.40   2.845   3.517   0.248   3.269   0.616   0.248   0.368   0.000   0.000  577.72  206.75  115.44   35.01    0.00   56.30   0.217   0.087   0.129 
 2020 250   141  20.10  33.80  14.40   2.782   3.439   0.236   3.202   0.597   0.236   0.361   0.000   0.000  581.16  207.35  115.68   35.37    0.00   56.30   0.215   0.085   0.130 
 2020 251   142  17.90  23.20   7.70   2.359   2.891   0.196   2.695   0.499   0.196   0.304   0.000   0.000  584.05  207.85  115.87   35.68    0.00   56.30   0.212   0.083   0.129 
 2020 252   143   2.40   7.40   3.30   0.326   0.371   0.026   0.344   0.065   0.026   0.039   0.000   0.000  584.42  207.92  115.90   35.72    0.00   56.30   0.200   0.081   0.119 
 2020 253   144   7.10   7.70   2.10   1.041   1.204   0.078   1.125   1.077   0.078   0.000   0.000   0.998  585.63  208.99  115.98   35.72    0.00   57.30   1.035   0.075   0.959 
 2020 254   145  17.40  15.50   2.10   1.946   2.362   0.125   2.237   2.110   0.125   0.000   0.000   1.985  587.99  211.10  116.10   35.72    0.00   59.28   1.084   0.064   1.020 
 2020 255   146   9.10  19.00   9.30   1.500   1.788   0.082   1.706   0.499   0.082   0.000   0.000   0.417  589.78  211.60  116.19   35.72    0.00   59.70   0.333   0.055   0.278 
 2020 256   147  19.60  23.70   6.50   2.374   2.920   0.127   2.793   1.972   0.127   0.000   0.000   1.845  592.70  213.57  116.31   35.72    0.00   61.55   0.831   0.053   0.777 
 2020 257   148  21.40  30.30   7.00   2.506   3.098   0.131   2.967   0.486   0.131   0.000   0.000   0.355  595.79  214.06  116.44   35.72    0.00   61.90   0.194   0.052   0.142 
 2020 258   149  16.60  28.70   6.60   2.134   2.639   0.109   2.529   0.394   0.109   0.217   0.000   0.068  598.43  214.46  116.55   35.93    0.00   61.97   0.185   0.051   0.134 
 2020 259   150  16.90  30.30  11.50   2.312   2.858   0.116   2.742   0.425   0.116   0.296   0.000   0.013  601.29  214.88  116.67   36.23    0.00   61.98   0.184   0.050   0.134 
 2020 260   151  16.20  21.80   8.30   2.070   2.514   0.101   2.412   0.373   0.101   0.269   0.000   0.003  603.80  215.25  116.77   36.50    0.00   61.98   0.180   0.049   0.131 
 2020 261   152  16.40  25.70   3.80   1.965   2.429   0.094   2.335   0.357   0.094   0.263   0.000   0.000  606.23  215.61  116.86   36.76    0.00   61.98   0.182   0.048   0.134 
 2020 262   153  16.60  26.90  10.00   2.196   2.693   0.100   2.593   0.393   0.100   0.292   0.000   0.000  608.93  216.00  116.97   37.05    0.00   61.99   0.179   0.046   0.133 
 2020 263   154  15.30  28.80  11.80   2.132   2.632   0.095   2.536   0.381   0.095   0.286   0.000   0.000  611.56  216.38  117.06   37.34    0.00   61.99   0.179   0.045   0.134 
 2020 264   155  15.90  28.20  15.00   2.200   2.693   0.097   2.597   0.389   0.097   0.293   0.000   0.000  614.25  216.77  117.16   37.63    0.00   61.99   0.177   0.044   0.133 
 2020 265   156  15.10  28.90  14.10   2.115   2.594   0.093   2.501   0.375   0.093   0.282   0.000   0.000  616.85  217.15  117.25   37.91    0.00   61.99   0.177   0.044   0.133 
 2020 266   157  17.40  30.40  10.80   2.125   2.627   0.093   2.534   0.861   0.093   0.000   0.000   0.767  619.47  218.01  117.34   37.91    0.00   62.75   0.405   0.044   0.361 
 2020 267   158  17.20  33.00   8.70   1.992   2.462   0.087   2.375   0.355   0.087   0.120   0.000   0.148  621.94  218.36  117.43   38.03    0.00   62.90   0.178   0.044   0.134 
 2020 268   159  16.60  31.40   6.70   1.878   2.322   0.082   2.239   0.335   0.082   0.224   0.000   0.028  624.26  218.70  117.51   38.26    0.00   62.93   0.178   0.044   0.134 
