*GROWTH ASPECTS OUTPUT FILE

*DSSAT Cropping System Model Ver. 4.8.2.000 -release  JUN 02, 2025 19:57:57

*RUN   1        : farm_23                   MZCER048 UNLI2309    1
 MODEL          : MZCER048 - Maize
 EXPERIMENT     : UNLI2309 MZ PIO1366
 DATA PATH      :
 TREATMENT  1   : farm_23                   MZCER048
  
!                                                                                                                                                                                                                                      Root Dens. (cm/cm3) by soil depth (cm):
!                                                                                                                                                                                                                                      0-5    5-15   15-23   23-31   31-46   46-61   61-91  91-106 106-122 122-183
@YEAR DOY   DAS   DAP   L#SD   GSTD   LAID   LWAD   SWAD   GWAD   RWAD   VWAD   CWAD   G#AD   GWGD   HIAD   PWAD   P#AD   WSPD   WSGD   NSTD   EWSD  PST1A  PST2A   KSTD   LN%D   SH%D   HIPD   PWDD   PWTD     SLAD   CHTD   CWID   RDPD    RL1D    RL2D    RL3D    RL4D    RL5D    RL6D    RL7D    RL8D    RL9D   RL10D   CDAD   LDAD   SDAD   SNW0C   SNW1C  DTTD
 2020 122    13     0    0.0      0   0.00      0      0      0      0      0      0      0    0.0  0.000      0      0  0.000  0.000  0.000  0.000  0.000  0.000  0.000   0.00   0.00   0.00      0      0      0.0   0.00   0.00   0.05    0.00    0.00    0.00    0.00    0.00    0.00    0.00    0.00    0.00    0.00      0      0      0       0       0 14.76
 2020 123    14     1    0.0      0   0.00      0      0      0      0      0      0      0    0.0  0.000      0      0  0.000  0.000  0.000  0.000  0.000  0.000  0.000   0.00   0.00   0.00      0      0      0.0   0.00   0.00   0.06    0.00    0.00    0.00    0.00    0.00    0.00    0.00    0.00    0.00    0.00      0      0      0       0       0  6.16
 2020 124    15     2    0.0      0   0.00      0      0      0      0      0      0      0    0.0  0.000      0      0  0.000  0.000  0.000  0.000  0.000  0.000  0.000   0.00   0.00   0.00      0      0      0.0   0.00   0.00   0.07    0.00    0.00    0.00    0.00    0.00    0.00    0.00    0.00    0.00    0.00      0      0      0       0       0  7.47
 2020 125    16     3    0.0      0   0.00      0      0      0      0      0      0      0    0.0  0.000      0      0  0.000  0.000  0.000  0.000  0.000  0.000  0.000   0.00   0.00   0.00      0      0      0.0   0.00   0.00   0.07    0.00    0.00    0.00    0.00    0.00    0.00    0.00    0.00    0.00    0.00      0      0      0       0       0  2.44
 2020 126    17     4    0.0      0   0.00      0      0      0      0      0      0      0    0.0  0.000      0      0  0.000  0.000  0.000  0.000  0.000  0.000  0.000   0.00   0.00   0.00      0      0      0.0   0.00   0.00   0.08    0.00    0.00    0.00    0.00    0.00    0.00    0.00    0.00    0.00    0.00      0      0      0       0       0  5.33
 2020 127    18     5    0.0      0   0.00      0      0      0      0      0      0      0    0.0  0.000      0      0  0.000  0.000  0.000  0.000  0.000  0.000  0.000   0.00   0.00   0.00      0      0      0.0   0.00   0.00   0.09    0.00    0.00    0.00    0.00    0.00    0.00    0.00    0.00    0.00    0.00      0      0      0       0       0  3.26
 2020 128    19     6    0.0      0   0.00      0      0      0      0      0      0      0    0.0  0.000      0      0  0.000  0.000  0.000  0.000  0.000  0.000  0.000   0.00   0.00   0.00      0      0      0.0   0.00   0.00   0.10    0.00    0.00    0.00    0.00    0.00    0.00    0.00    0.00    0.00    0.00      0      0      0       0       0  6.64
 2020 129    20     7    0.0      0   0.00      0      0      0      0      0      0      0    0.0  0.000      0      0  0.000  0.000  0.000  0.000  0.000  0.000  0.000   0.00   0.00   0.00      0      0      0.0   0.00   0.00   0.10    0.00    0.00    0.00    0.00    0.00    0.00    0.00    0.00    0.00    0.00      0      0      0       0       0  2.95
 2020 130    21     8    0.0      0   0.00      0      0      0      0      0      0      0    0.0  0.000      0      0  0.000  0.000  0.000  0.000  0.000  0.000  0.000   0.00   0.00   0.00      0      0      0.0   0.00   0.00   0.10    0.00    0.00    0.00    0.00    0.00    0.00    0.00    0.00    0.00    0.00      0      0      0       0       0  2.13
 2020 131    22     9    0.0      0   0.00      0      0      0      0      0      0      0    0.0  0.000      0      0  0.000  0.000  0.000  0.000  0.000  0.000  0.000   0.00   0.00   0.00      0      0      0.0   0.00   0.00   0.11    0.00    0.00    0.00    0.00    0.00    0.00    0.00    0.00    0.00    0.00      0      0      0       0       0  1.13
 2020 132    23    10    0.0      0   0.00      0      0      0      0      0      0      0    0.0  0.000      0      0  0.000  0.000  0.000  0.000  0.000  0.000  0.000   0.00   0.00   0.00      0      0      0.0   0.00   0.00   0.11    0.00    0.00    0.00    0.00    0.00    0.00    0.00    0.00    0.00    0.00      0      0      0       0       0  0.00
 2020 133    24    11    0.0      0   0.00      0      0      0      0      0      0      0    0.0  0.000      0      0  0.000  0.000  0.000  0.000  0.000  0.000  0.000   0.00   0.00   0.00      0      0      0.0   0.00   0.00   0.11    0.00    0.00    0.00    0.00    0.00    0.00    0.00    0.00    0.00    0.00      0      0      0       0       0  0.00
 2020 134    25    12    0.0      0   0.00      0      0      0      0      0      0      0    0.0  0.000      0      0  0.000  0.000  0.000  0.000  0.000  0.000  0.000   0.00   0.00   0.00      0      0      0.0   0.00   0.00   0.11    0.00    0.00    0.00    0.00    0.00    0.00    0.00    0.00    0.00    0.00      0      0      0       0       0  2.57
 2020 135    26    13    0.0      0   0.00      0      0      0      0      0      0      0    0.0  0.000      0      0  0.000  0.000  0.000  0.000  0.000  0.000  0.000   0.00   0.00   0.00      0      0      0.0   0.00   0.00   0.12    0.00    0.00    0.00    0.00    0.00    0.00    0.00    0.00    0.00    0.00      0      0      0       0       0  8.38
 2020 136    27    14    0.0      0   0.00      0      0      0      0      0      0      0    0.0  0.000      0      0  0.000  0.000  0.000  0.000  0.000  0.000  0.000   0.00   0.00   0.00      0      0      0.0   0.00   0.00   0.13    0.00    0.00    0.00    0.00    0.00    0.00    0.00    0.00    0.00    0.00      0      0      0       0       0  6.45
 2020 137    28    15    0.0      0   0.00      0      0      0      0      0      0      0    0.0  0.000      0      0  0.000  0.000  0.000  0.000  0.000  0.000  0.000   0.00   0.00   0.00      0      0      0.0   0.00   0.00   0.14    0.00    0.00    0.00    0.00    0.00    0.00    0.00    0.00    0.00    0.00      0      0      0       0       0  7.59
 2020 138    29    16    0.0      0   0.00      0      0      0      0      0      0      0    0.0  0.000      0      0  0.000  0.000  0.000  0.000  0.000  0.000  0.000   0.00   0.00   0.00      0      0      0.0   0.00   0.00   0.15    0.00    0.00    0.00    0.00    0.00    0.00    0.00    0.00    0.00    0.00      0      0      0       0       0  4.43
 2020 139    30    17    0.0      0   0.00      0      0      0      0      0      0      0    0.0  0.000      0      0  0.000  0.000  0.000  0.000  0.000  0.000  0.000   0.00   0.00   0.00      0      0      0.0   0.00   0.00   0.16    0.00    0.00    0.00    0.00    0.00    0.00    0.00    0.00    0.00    0.00      0      0      0       0       0  5.76
 2020 140    31    18    1.0      1   0.00     16     16      0     16     32     32      0    0.0  0.000      0      0  0.000  0.000  0.014  0.000  0.000  0.000  0.000   4.40   0.00   0.00      0      0     15.3   0.00   0.00   0.17    0.32    0.16    0.02    0.00    0.00    0.00    0.00    0.00    0.00    0.00      0      0      0       0       0  9.56
 2020 141    32    19    2.0      1   0.00     16     16      0     17     32     32      0    0.0  0.000      0      0  0.000  0.000  0.016  0.000  0.000  0.000  0.000   4.40   0.00   0.00      0      0     29.4   0.00   0.00   0.18    0.32    0.17    0.02    0.00    0.00    0.00    0.00    0.00    0.00    0.00      0      0      0       0       0 11.36
 2020 142    33    20    2.0      1   0.01     16     16      0     17     32     32      0    0.0  0.000      0      0  0.000  0.000  0.014  0.000  0.000  0.000  0.000   4.40   0.00   0.00      0      0     38.8   0.00   0.00   0.19    0.32    0.17    0.02    0.00    0.00    0.00    0.00    0.00    0.00    0.00      0      0      0       0       0  7.20
 2020 143    34    21    2.0      1   0.01     16     16      0     17     32     32      0    0.0  0.000      0      0  0.000  0.000  0.011  0.000  0.000  0.000  0.000   4.40   0.00   0.00      0      0     52.1   0.00   0.00   0.20    0.33    0.17    0.03    0.00    0.00    0.00    0.00    0.00    0.00    0.00      0      0      0       0       0  9.32
 2020 144    35    22    2.0      1   0.01     16     16      0     18     32     32      0    0.0  0.000      0      0  0.000  0.000  0.007  0.000  0.000  0.000  0.000   4.40   0.00   0.00      0      0     67.5   0.00   0.00   0.21    0.34    0.18    0.04    0.00    0.00    0.00    0.00    0.00    0.00    0.00      0      0      0       0       0  9.91
 2020 145    36    23    3.0      1   0.01     16     16      0     19     32     32      0    0.0  0.000      0      0  0.000  0.000  0.004  0.000  0.000  0.000  0.000   4.40   0.00   0.00      0      0     81.6   0.01   0.00   0.22    0.34    0.19    0.05    0.00    0.00    0.00    0.00    0.00    0.00    0.00      0      0      0       0       0  8.68
 2020 146    37    24    3.0      1   0.01     16     16      0     20     32     32      0    0.0  0.000      0      0  0.000  0.000  0.003  0.000  0.000  0.000  0.000   4.40   0.00   0.00      0      0     88.9   0.01   0.00   0.22    0.35    0.19    0.06    0.00    0.00    0.00    0.00    0.00    0.00    0.00      0      0      0       0       0  4.56
 2020 147    38    25    3.0      1   0.02     16     16      0     23     32     32      0    0.0  0.000      0      0  0.000  0.000  0.000  0.000  0.000  0.000  0.000   4.40   0.00   0.00      0      0     97.6   0.01   0.00   0.23    0.36    0.20    0.09    0.00    0.00    0.00    0.00    0.00    0.00    0.00      0      0      0       0       0  8.31
 2020 148    39    26    3.0      1   0.02     16     16      0     25     32     32      0    0.0  0.000      0      0  0.000  0.000  0.000  0.000  0.000  0.000  0.000   4.40   0.00   0.00      0      0    118.7   0.01   0.00   0.24    0.38    0.22    0.13    0.00    0.00    0.00    0.00    0.00    0.00    0.00      0      0      0       0       0 11.28
 2020 149    40    27    3.0      1   0.02     16     16      0     28     32     32      0    0.0  0.000      0      0  0.000  0.000  0.000  0.000  0.000  0.000  0.000   4.40   0.00   0.00      0      0    139.8   0.01   0.00   0.25    0.39    0.23    0.16    0.02    0.00    0.00    0.00    0.00    0.00    0.00      0      0      0       0       0 10.76
 2020 150    41    28    4.0      1   0.04     16     16      0     32     32     32      0    0.0  0.000      0      0  0.000  0.000  0.000  0.000  0.000  0.000  0.000   4.40   0.00   0.00      0      0    216.7   0.01   0.00   0.26    0.40    0.24    0.20    0.04    0.00    0.00    0.00    0.00    0.00    0.00      0      0      0       0       0 11.70
 2020 151    42    29    4.0      1   0.05     16     16      0     37     32     32      0    0.0  0.000      0      0  0.000  0.000  0.000  0.000  0.000  0.000  0.000   4.27   0.00   0.00      0      0    311.5   0.02   0.00   0.27    0.41    0.26    0.25    0.10    0.00    0.00    0.00    0.00    0.00    0.00      0      0      0       0       0 12.85
 2020 152    43    30    4.0      1   0.07     22     16      0     42     39     39      0    0.0  0.000      0      0  0.000  0.000  0.000  0.000  0.000  0.000  0.000   3.54   0.00   0.00      0      0    320.1   0.03   0.00   0.29    0.42    0.27    0.29    0.15    0.00    0.00    0.00    0.00    0.00    0.00      0      0      0       0       0 15.72
 2020 153    44    31    5.0      1   0.10     35     16      0     46     52     52      0    0.0  0.000      0      0  0.000  0.000  0.000  0.000  0.000  0.000  0.000   3.12   0.00   0.00      0      0    292.3   0.04   0.00   0.31    0.43    0.28    0.32    0.20    0.00    0.00    0.00    0.00    0.00    0.00      0      0      0       0       1 20.40
 2020 154    45    32    5.0      1   0.14     50     16      0     53     66     66      0    0.0  0.000      0      0  0.000  0.000  0.000  0.000  0.000  0.000  0.000   3.22   0.00   0.00      0      0    272.6   0.06   0.00   0.33    0.44    0.29    0.37    0.29    0.00    0.00    0.00    0.00    0.00    0.00      0      0      0       0       1 18.70
 2020 155    46    33    6.0      1   0.17     64     16      0     66     80     80      0    0.0  0.000      0      0  0.000  0.000  0.000  0.000  0.000  0.000  0.000   3.37   0.00   0.00      0      0    259.2   0.07   0.00   0.34    0.48    0.33    0.40    0.44    0.04    0.00    0.00    0.00    0.00    0.00      0      0      0       0       1 15.58
 2020 156    47    34    6.0      2   0.21     79     16      0     83     95     95      0    0.0  0.000      0      0  0.000  0.000  0.000  0.000  0.000  0.000  0.000   3.40   0.00   0.00      0      0    265.2   0.09   0.00   0.36    0.54    0.40    0.47    0.50    0.12    0.00    0.00    0.00    0.00    0.00      0      0      0       0       1 17.87
 2020 157    48    35    6.0      2   0.26    102     16      0    105    118    118      0    0.0  0.000      0      0  0.000  0.000  0.003  0.000  0.000  0.000  0.000   3.25   0.00   0.00      0      0    251.3   0.11   0.00   0.40    0.62    0.47    0.54    0.58    0.26    0.00    0.00    0.00    0.00    0.00      0      0      0       0       2 17.91
 2020 158    49    36    7.0      2   0.32    135     16      0    119    152    152      0    0.0  0.000      0      0  0.000  0.000  0.000  0.000  0.000  0.000  0.000   3.13   0.00   0.00      0      0    237.0   0.14   0.00   0.44    0.68    0.53    0.60    0.64    0.31    0.00    0.00    0.00    0.00    0.00      0      0      0       0       2 21.14
 2020 159    50    37    7.0      2   0.40    178     16      0    145    194    194      0    0.0  0.000      0      0  0.000  0.000  0.000  0.000  0.000  0.000  0.000   2.98   0.00   0.00      0      0    224.1   0.17   0.00   0.49    0.78    0.64    0.71    0.74    0.44    0.00    0.00    0.00    0.00    0.00      0      0      0       0       3 22.28
 2020 160    51    38    8.0      2   0.46    215     16      0    179    231    231      0    0.0  0.000      0      0  0.000  0.000  0.017  0.000  0.000  0.000  0.000   2.70   0.00   0.00      0      0    215.3   0.20   0.00   0.52    0.86    0.71    0.79    0.82    0.52    0.19    0.00    0.00    0.00    0.00      0      0      0       0       4 18.04
 2020 161    52    39    8.0      2   0.48    226     16      0    180    243    243      0    0.0  0.000      0      0  0.000  0.000  0.091  0.000  0.000  0.000  0.000   3.18   0.00   0.00      0      0    211.0   0.20   0.00   0.53    0.86    0.71    0.79    0.82    0.52    0.21    0.00    0.00    0.00    0.00      0      0      0       0       5  6.69
 2020 162    53    40    8.0      3   0.51    248     16      0    238    264    264      0    0.0  0.000      0      0  0.000  0.000  0.070  0.000  0.000  0.000  0.000   3.15   0.00   0.00      0      0    204.2   0.21   0.00   0.56    1.06    0.92    0.99    1.02    0.72    0.34    0.00    0.00    0.00    0.00      0      0      0       0       5 10.68
 2020 163    54    41    8.0      3   0.55    279     16      0    295    295    295      0    0.0  0.000      0      0  0.000  0.000  0.049  0.000  0.000  0.000  0.000   2.96   0.00   0.00      0      0    199.1   0.24   0.00   0.58    1.25    1.11    1.18    1.21    0.92    0.50    0.00    0.00    0.00    0.00      0      0      0       0       7 13.04
 2020 164    55    42    9.0      3   0.62    319     17      0    352    336    336      0    0.0  0.000      0      0  0.000  0.000  0.063  0.000  0.000  0.000  0.000   2.65   0.00   0.00      0      0    193.2   0.26   0.00   0.62    1.43    1.29    1.36    1.39    1.10    0.69    0.00    0.00    0.00    0.00      0      0      0       0       8 16.40
 2020 165    56    43    9.0      3   0.67    360     18      0    411    378    378      0    0.0  0.000      0      0  0.000  0.000  0.099  0.000  0.000  0.000  0.000   2.39   0.00   0.00      0      0    187.1   0.29   0.00   0.65    1.58    1.44    1.51    1.54    1.25    0.84    0.07    0.00    0.00    0.00      0      0      0       0      10 16.65
 2020 166    57    44    9.0      3   0.74    413     21      0    447    433    433      0    0.0  0.000      0      0  0.000  0.000  0.139  0.000  0.000  0.000  0.000   2.34   0.00   0.00      0      0    180.0   0.31   0.00   0.69    1.65    1.51    1.58    1.61    1.32    0.92    0.16    0.00    0.00    0.00      0      0      0       0      12 21.97
 2020 167    58    45   10.0      3   0.82    472     25      0    497    497    497      0    0.0  0.000      0      0  0.000  0.000  0.135  0.000  0.000  0.000  0.000   2.30   0.00   0.00      0      0    173.6   0.35   0.00   0.74    1.78    1.64    1.71    1.74    1.45    1.05    0.22    0.00    0.00    0.00      0      0      0       0      14 21.68
 2020 168    59    46   10.0      3   0.90    536     33      0    555    569    569      0    0.0  0.000      0      0  0.000  0.000  0.134  0.000  0.000  0.000  0.000   2.19   0.00   0.00      0      0    167.7   0.38   0.00   0.78    1.93    1.79    1.86    1.89    1.60    1.20    0.30    0.00    0.00    0.00      0      0      0       0      17 20.94
 2020 169    60    47   11.0      3   0.98    607     44      0    608    651    651      0    0.0  0.000      0      0  0.000  0.000  0.148  0.000  0.000  0.000  0.000   1.99   0.00   0.00      0      0    161.9   0.42   0.00   0.82    2.05    1.91    1.98    2.01    1.72    1.32    0.39    0.00    0.00    0.00      0      0      0       0      19 21.90
 2020 170    61    48   11.0      3   1.01    644     51      0    655    695    695      0    0.0  0.000      0      0  0.000  0.000  0.178  0.000  0.000  0.000  0.000   1.92   0.00   0.00      0      0    157.2   0.43   0.00   0.85    2.15    2.02    2.08    2.12    1.83    1.43    0.48    0.00    0.00    0.00      0      0      0       0      22 12.15
 2020 171    62    49   11.0      3   1.02    672     57      0    688    729    729      0    0.0  0.000      0      0  0.000  0.000  0.230  0.000  0.000  0.000  0.000   1.88   0.00   0.00      0      0    152.4   0.43   0.00   0.87    2.23    2.09    2.16    2.19    1.90    1.51    0.55    0.00    0.00    0.00      0      0      0       0      26 10.40
 2020 172    63    50   11.0      3   1.04    706     66      0    747    772    772      0    0.0  0.000      0      0  0.000  0.000  0.257  0.000  0.000  0.000  0.000   1.81   0.00   0.00      0      0    147.6   0.44   0.00   0.89    2.35    2.21    2.28    2.31    2.03    1.63    0.67    0.00    0.00    0.00      0      0      0       0      29 12.40
 2020 173    64    51   12.0      3   1.08    755     81      0    783    835    835      0    0.0  0.000      0      0  0.000  0.000  0.270  0.000  0.000  0.000  0.000   1.71   0.00   0.00      0      0    142.9   0.46   0.00   0.92    2.42    2.29    2.35    2.38    2.10    1.71    0.76    0.00    0.00    0.00      0      0      0       0      33 15.30
 2020 174    65    52   12.0      3   1.10    792     93      0    840    884    884      0    0.0  0.000      0      0  0.000  0.000  0.294  0.000  0.000  0.000  0.000   1.64   0.00   0.00      0      0    138.4   0.46   0.00   0.93    2.54    2.41    2.47    2.50    2.22    1.83    0.88    0.00    0.00    0.00      0      0      0       0      37 11.95
 2020 175    66    53   12.0      3   1.10    822    104      0    898    926    926      0    0.0  0.000      0      0  0.000  0.000  0.337  0.000  0.000  0.000  0.000   1.59   0.00   0.00      0      0    134.1   0.47   0.00   0.94    2.66    2.53    2.59    2.62    2.35    1.96    1.01    0.01    0.00    0.00      0      0      0       0      41 10.60
 2020 176    67    54   13.0      3   1.12    864    122      0    951    986    986      0    0.0  0.000      0      0  0.000  0.000  0.359  0.000  0.000  0.000  0.000   1.52   0.00   0.00      0      0    129.8   0.48   0.00   0.95    2.77    2.64    2.70    2.73    2.46    2.07    1.13    0.01    0.00    0.00      0      0      0       0      45 15.45
 2020 177    68    55   13.0      3   1.15    913    147      0    980   1060   1060      0    0.0  0.000      0      0  0.000  0.000  0.370  0.000  0.000  0.000  0.000   1.44   0.00   0.00      0      0    125.8   0.49   0.00   0.96    2.83    2.69    2.76    2.79    2.52    2.13    1.20    0.02    0.00    0.00      0      0      0       0      50 18.37
 2020 178    69    56   13.0      3   1.16    956    170      0   1026   1126   1126      0    0.0  0.000      0      0  0.000  0.000  0.393  0.000  0.000  0.000  0.000   1.38   0.00   0.00      0      0    121.8   0.49   0.00   0.97    2.92    2.79    2.86    2.89    2.61    2.23    1.30    0.03    0.00    0.00      0      0      0       0      55 16.35
 2020 179    70    57   14.0      3   1.26   1067    201      0   1029   1268   1268      0    0.0  0.000      0      0  0.000  0.000  0.420  0.000  0.000  0.000  0.000   1.25   0.00   0.00      0      0    118.4   0.54   0.00   0.98    2.93    2.79    2.86    2.89    2.61    2.23    1.31    0.03    0.00    0.00      0      0      0       0      60 17.05
 2020 180    71    58   14.0      3   1.30   1134    285      0   1032   1418   1418      0    0.0  0.000      0      0  0.000  0.000  0.435  0.000  0.000  0.000  0.000   1.14   0.00   0.00      0      0    114.7   0.55   0.00   1.00    2.93    2.79    2.86    2.89    2.62    2.24    1.32    0.03    0.00    0.00      0      0      0       0      65 18.30
 2020 181    72    59   14.0      3   1.31   1181    368      0   1035   1548   1550      0    0.0  0.000      2      0  0.000  0.000  0.484  0.000  0.000  0.000  0.000   1.07   0.00   0.00      0      2    110.9   0.56   0.00   1.01    2.93    2.80    2.86    2.89    2.62    2.24    1.33    0.03    0.00    0.00      0      0      0       0      71 20.62
 2020 182    73    60   15.0      3   1.28   1200    404      0   1067   1604   1608      0    0.0  0.000      4      0  0.000  0.000  0.530  0.000  0.000  0.000  0.000   1.05   0.00   0.00      0      4    106.8   0.56   0.00   1.02    2.99    2.86    2.93    2.96    2.69    2.31    1.40    0.04    0.00    0.00      0      0      0       0      76 11.00
 2020 183    74    61   15.0      3   1.25   1216    439      0   1105   1655   1662      0    0.0  0.000      7      0  0.000  0.000  0.558  0.000  0.000  0.000  0.000   1.04   0.00   0.00      0      7    102.8   0.56   0.00   1.03    3.07    2.94    3.00    3.03    2.76    2.39    1.48    0.05    0.00    0.00      0      0      0       0      81 11.81
 2020 184    75    62   15.0      3   1.23   1237    489      0   1110   1727   1736      0    0.0  0.000     10      0  0.000  0.000  0.556  0.000  0.000  0.000  0.000   1.02   0.00   0.01      0     10     99.1   0.56   0.00   1.04    3.08    2.94    3.01    3.04    2.77    2.40    1.50    0.06    0.00    0.00      0      0      0       0      87 16.65
 2020 185    76    63   16.0      3   1.20   1257    539      0   1134   1797   1812      0    0.0  0.000     15      0  0.000  0.000  0.552  0.000  0.000  0.000  0.000   0.99   0.00   0.01      0     15     95.5   0.56   0.00   1.05    3.12    2.99    3.05    3.08    2.82    2.45    1.55    0.06    0.00    0.00      0      0      0       0      92 17.10
 2020 186    77    64   16.0      3   1.17   1275    585      0   1158   1860   1882      0    0.0  0.000     22      0  0.000  0.000  0.554  0.000  0.000  0.000  0.000   0.98   0.00   0.01      0     22     92.1   0.56   0.00   1.06    3.17    3.04    3.10    3.13    2.87    2.50    1.61    0.07    0.00    0.00      0      0      0       0      98 16.40
 2020 187    78    65   16.0      3   1.15   1292    632      0   1170   1924   1955      0    0.0  0.000     30      0  0.000  0.000  0.555  0.000  0.000  0.000  0.000   0.96   0.00   0.02      0     30     88.8   0.56   0.00   1.07    3.19    3.06    3.12    3.15    2.89    2.52    1.63    0.07    0.00    0.00      0      0      0       0     104 17.30
 2020 188    79    66   17.0      3   1.12   1310    680      0   1186   1989   2033      0    0.0  0.000     43      0  0.000  0.000  0.552  0.000  0.000  0.000  0.000   0.95   0.00   0.02      0     43     85.7   0.56   0.00   1.09    3.22    3.09    3.15    3.18    2.92    2.56    1.67    0.08    0.00    0.00      0      0      0       0     109 18.60
 2020 189    80    67   17.0      3   1.10   1327    727      0   1201   2054   2115      0    0.0  0.000     61      0  0.000  0.000  0.548  0.000  0.000  0.000  0.000   0.93   0.00   0.03      0     61     82.8   0.56   0.00   1.10    3.24    3.12    3.18    3.21    2.95    2.59    1.71    0.08    0.01    0.00      0      0      0       0     115 19.78
 2020 190    81    68   18.0      3   1.08   1344    769      0   1212   2113   2197      0    0.0  0.000     84      0  0.000  0.000  0.544  0.000  0.000  0.000  0.000   0.92   0.00   0.04      0     84     80.0   0.56   0.00   1.11    3.26    3.13    3.20    3.23    2.97    2.61    1.73    0.09    0.01    0.00      0      0      0       0     121 19.30
 2020 191    82    69   18.0      3   1.05   1357    787      0   1235   2144   2257      0    0.0  0.000    113      0  0.000  0.000  0.548  0.000  0.000  0.000  0.000   0.93   0.00   0.05      0    113     77.2   0.56   0.00   1.12    3.31    3.18    3.24    3.27    3.01    2.65    1.78    0.09    0.02    0.00      0      0      0       0     127 14.35
 2020 192    83    70   18.0      3   1.02   1371    809      0   1249   2179   2326      0    0.0  0.000    146      0  0.000  0.000  0.549  0.000  0.000  0.000  0.000   0.93   0.00   0.06      0    146     74.6   0.56   0.00   1.13    3.33    3.20    3.27    3.29    3.04    2.68    1.81    0.10    0.03    0.00      0      0      0       0     134 16.70
 2020 193    84    71   18.0      3   1.00   1384    818      0   1267   2202   2388      0    0.0  0.000    186      0  0.000  0.000  0.544  0.000  0.000  0.000  0.000   0.93   0.00   0.08      0    186     72.1   0.56   0.00   1.14    3.36    3.24    3.30    3.33    3.07    2.72    1.85    0.10    0.04    0.00      0      0      0       0     140 14.80
 2020 194    85    72   18.0      3   0.97   1397    825      0   1280   2222   2452      0    0.0  0.000    230      0  0.000  0.000  0.541  0.000  0.000  0.000  0.000   0.94   0.00   0.09      0    230     69.7   0.56   0.00   1.15    3.38    3.26    3.32    3.35    3.09    2.74    1.88    0.10    0.05    0.00      0      0      0       0     146 15.05
 2020 195    86    73   18.0      3   0.96   1414    842      0   1280   2256   2534      0    0.0  0.000    278      0  0.000  0.000  0.534  0.000  0.000  0.000  0.000   0.95   0.00   0.11      0    278     67.6   0.56   0.00   1.17    3.38    3.26    3.32    3.35    3.09    2.74    1.89    0.11    0.05    0.00      0      0      0       0     153 18.70
 2020 196    87    74   18.0      3   0.93   1425    850      0   1280   2275   2590      0    0.0  0.000    315      0  0.000  0.000  0.526  0.000  0.000  0.000  0.000   0.95   0.00   0.12      0    315     65.4   0.56   0.00   1.18    3.38    3.25    3.31    3.34    3.09    2.74    1.89    0.11    0.05    0.00      0      0      0       0     159 12.25
 2020 197    88    75   18.0      4   0.90   1407    926      0   1277   2332   2660      0    0.0  0.000    328      0  0.000  0.000  0.523  0.000  0.000  0.000  0.000   0.94   0.00   0.12      0    328     63.7   0.56   0.00   1.19    3.37    3.24    3.30    3.33    3.08    2.73    1.89    0.11    0.05    0.00      0      0      0       0     165 14.85
 2020 198    89    76   18.0      4   0.86   1386   1005      0   1275   2392   2735      0    0.0  0.000    344      0  0.000  0.000  0.515  0.000  0.000  0.000  0.000   0.93   0.00   0.13      0    344     62.2   0.56   0.00   1.20    3.36    3.23    3.29    3.32    3.07    2.73    1.89    0.11    0.05    0.00      0      0      0       0     172 17.30
 2020 199    90    77   18.0      4   0.83   1364   1088      0   1273   2453   2815      0    0.0  0.000    362      0  0.000  0.000  0.515  0.000  0.000  0.000  0.000   0.93   0.00   0.13      0    362     60.8   0.56   0.00   1.21    3.35    3.23    3.29    3.31    3.07    2.72    1.89    0.11    0.05    0.00      0      0      0       0     178 20.12
 2020 200    91    78   18.0      4   0.80   1341   1138      0   1269   2478   2852      0    0.0  0.000    373      0  0.000  0.000  0.515  0.000  0.000  0.000  0.000   0.93   0.00   0.13      0    373     59.5   0.56   0.00   1.22    3.34    3.22    3.27    3.30    3.06    2.71    1.88    0.11    0.06    0.00      0      0      0       0     185 16.45
 2020 201    92    79   18.0      4   0.77   1316   1204      0   1267   2520   2909      0    0.0  0.000    389      0  0.000  0.000  0.515  0.000  0.000  0.000  0.000   0.94   0.00   0.13      0    389     58.3   0.56   0.00   1.23    3.33    3.21    3.26    3.29    3.05    2.71    1.88    0.11    0.06    0.00      0      0      0       0     191 15.45