*SOIL WATER DAILY OUTPUT FILE

*DSSAT Cropping System Model Ver. 4.8.2.000 -release  JAN 23, 2025 23:43:37

*RUN   1        : silt_loam_13in_irr        MZCER048 UNLI2201    1
 MODEL          : MZCER048 - Maize
 EXPERIMENT     : UNLI2201 MZ IRRIGATED MAIZE PRODUCTION
 DATA PATH      :
 TREATMENT  1   : silt_loam_13in_irr        MZCER048
  
!                                                                                                                                   Soil water content (mm3/mm3) by soil depth (cm):
!                                                                                                                                   0-5    5-15   15-23   23-38   38-53   53-61   61-69   69-84   84-99  99-114 114-130 130-145 145-160
@YEAR DOY   DAS    SWTD    SWXD    ROFC    DRNC    PREC    IR#C    IRRC   LATFC    DTWT    MWTD    TDFD    TDFC    ROFD    ROSD    SW1D    SW2D    SW3D    SW4D    SW5D    SW6D    SW7D    SW8D    SW9D   SW10D   SW11D   SW12D   SW13D
 2022 120     0     298     208       0       0       0       0       0       0     160    0.00     0.0     0.0    0.00    0.00   0.200   0.207   0.210   0.210   0.170   0.150   0.150   0.190   0.180   0.180   0.180   0.200   0.190
 2022 121     1     297     207       0       0       0       0       0       0     160    0.00     0.0     0.0    0.00    0.00   0.185   0.206   0.210   0.210   0.170   0.150   0.150   0.190   0.180   0.180   0.180   0.200   0.190
 2022 122     2     330     240       3       0      37       0       0       0     160    0.00     0.0     0.0    2.93    0.00   0.385   0.346   0.279   0.224   0.176   0.154   0.153   0.190   0.180   0.180   0.180   0.200   0.190
 2022 123     3     314     225       3      13      37       0       0       0     160    0.00     0.0     0.0    0.00    0.00   0.292   0.284   0.248   0.216   0.172   0.152   0.152   0.189   0.179   0.179   0.179   0.199   0.189
 2022 124     4     319     229       3      13      42       0       0       0     160    0.00     0.0     0.0    0.00    0.00   0.323   0.273   0.266   0.225   0.177   0.156   0.154   0.190   0.179   0.179   0.179   0.199   0.189
 2022 125     5     320     230       3      13      45       0       0       0     160    0.00     0.0     0.0    0.00    0.00   0.301   0.262   0.270   0.231   0.182   0.163   0.157   0.192   0.178   0.179   0.179   0.199   0.189
 2022 126     6     306     216       3      20      45       0       0       0     160    0.00     0.0     0.0    0.00    0.00   0.231   0.230   0.239   0.218   0.175   0.156   0.152   0.190   0.178   0.179   0.179   0.199   0.189
 2022 127     7     312     222       3      20      56       0       0       0     160    0.00     0.0     0.0    0.00    0.00   0.339   0.240   0.243   0.219   0.176   0.158   0.154   0.190   0.177   0.177   0.177   0.197   0.188
 2022 128     8     302     212       3      25      56       0       0       0     160    0.00     0.0     0.0    0.00    0.00   0.251   0.217   0.223   0.211   0.171   0.153   0.150   0.188   0.178   0.179   0.179   0.199   0.189
 2022 129     9     321     231       3      25      56       1      25       0     160    0.00     0.0     0.0    0.00    0.00   0.352   0.313   0.270   0.221   0.174   0.155   0.151   0.187   0.177   0.177   0.177   0.197   0.188
 2022 130    10     340     250       3      25      56       2      51       0     160    0.00     0.0     0.0    0.00    0.00   0.348   0.366   0.364   0.247   0.186   0.165   0.156   0.188   0.175   0.176   0.176   0.196   0.187
 2022 131    11     359     269       3      25      56       3      76       0     160    0.00     0.0     0.0    0.00    0.00   0.353   0.366   0.372   0.310   0.219   0.196   0.171   0.192   0.176   0.175   0.175   0.195   0.186
 2022 132    12     379     290       3      25      56       4     102       0     160    0.00     0.0     0.0    0.00    0.00   0.361   0.369   0.374   0.352   0.256   0.241   0.198   0.201   0.181   0.175   0.174   0.194   0.185
 2022 133    13     399     309       3      25      56       5     127       0     160    0.00     0.0     0.0    0.00    0.00   0.358   0.368   0.373   0.379   0.288   0.293   0.236   0.213   0.190   0.182   0.173   0.193   0.184
 2022 134    14     419     329       3      25      56       6     152       0     160    0.00     0.0     0.0    0.00    0.00   0.360   0.369   0.374   0.387   0.319   0.345   0.281   0.231   0.201   0.189   0.179   0.192   0.183
 2022 135    15     439     349       3      25      57       7     178       0     160    0.00     0.0     0.0    0.00    0.00   0.356   0.368   0.373   0.387   0.346   0.344   0.345   0.262   0.221   0.201   0.187   0.197   0.182
 2022 136    16     458     368       3      25      58       8     203       0     160    0.00     0.0     0.0    0.00    0.00   0.355   0.367   0.373   0.386   0.349   0.344   0.344   0.310   0.252   0.221   0.199   0.205   0.186
 2022 137    17     476     386       3      25      58       9     229       0     160    0.00     0.0     0.0    0.00    0.00   0.359   0.368   0.374   0.387   0.349   0.344   0.344   0.339   0.282   0.245   0.215   0.218   0.194
 2022 138    18     493     403       3      27      58      10     254       0     159    0.00     0.0     0.0    0.00    0.00   0.355   0.367   0.373   0.386   0.349   0.344   0.344   0.358   0.307   0.269   0.234   0.233   0.205
 2022 139    19     509     419       3      30      58      11     279       0     159    0.00     0.0     0.0    0.00    0.00   0.362   0.370   0.375   0.388   0.350   0.345   0.345   0.367   0.326   0.291   0.253   0.250   0.219
 2022 140    20     528     439       3      34      58      12     305       0     158    0.00     0.0     0.0    0.00    0.00   0.381   0.377   0.379   0.391   0.352   0.347   0.347   0.379   0.343   0.312   0.273   0.270   0.235
 2022 141    21     545     455       3      41      58      13     330       0     157    0.00     0.0     0.0    0.00    0.00   0.376   0.375   0.378   0.390   0.351   0.346   0.346   0.386   0.369   0.334   0.293   0.290   0.253
 2022 142    22     558     468       3      49      58      14     356       0     156    0.00     0.0     0.0    0.00    0.00   0.371   0.373   0.377   0.389   0.351   0.346   0.346   0.385   0.381   0.352   0.315   0.311   0.272
 2022 143    23     581     492       3      61      68      15     381       0     154    0.00     0.0     0.0    0.10    0.00   0.384   0.378   0.380   0.392   0.353   0.347   0.347   0.386   0.382   0.353   0.360   0.367   0.306
 2022 144    24     590     500       3      78      71      16     406       0     151    0.00     0.0     0.0    0.00    0.00   0.380   0.377   0.379   0.391   0.352   0.347   0.347   0.386   0.382   0.353   0.360   0.379   0.359
 2022 145    25     587     498       3     100      71      17     432       0     151    0.00     0.0     0.0    0.00    0.00   0.362   0.370   0.375   0.388   0.350   0.345   0.345   0.384   0.381   0.352   0.358   0.378   0.367
 2022 146    26     586     496       3     119      71      18     457       0     151    0.00     0.0     0.0    0.00    0.00   0.358   0.368   0.374   0.387   0.349   0.344   0.344   0.384   0.380   0.351   0.358   0.378   0.367
 2022 147    27     586     496       3     138      71      19     483       0     151    0.00     0.0     0.0    0.00    0.00   0.357   0.368   0.373   0.387   0.349   0.344   0.344   0.384   0.377   0.351   0.358   0.377   0.367
 2022 148    28     586     496       3     156      71      20     508       0     151    0.00     0.0     0.0    0.00    0.00   0.360   0.369   0.374   0.387   0.350   0.344   0.345   0.384   0.374   0.351   0.358   0.378   0.367
 2022 149    29     587     497       3     175      71      21     533       0     151    0.00     0.0     0.0    0.00    0.00   0.363   0.370   0.375   0.388   0.350   0.345   0.345   0.384   0.376   0.352   0.358   0.378   0.367
 2022 150    30     590     500       3     200      77      22     559       0     151    0.00     0.0     0.0    0.00    0.00   0.371   0.373   0.377   0.389   0.351   0.346   0.346   0.385   0.381   0.352   0.359   0.378   0.368
 2022 151    31     590     500       3     221      77      23     584       0     151    0.00     0.0     0.0    0.00    0.00   0.372   0.374   0.377   0.390   0.351   0.346   0.346   0.385   0.382   0.352   0.359   0.378   0.368
 2022 152    32     589     499       3     243      77      24     610       0     151    0.00     0.0     0.0    0.00    0.00   0.367   0.372   0.376   0.389   0.351   0.345   0.346   0.385   0.381   0.352   0.359   0.378   0.368
 2022 153    33     588     498       3     264      77      25     635       0     151    0.00     0.0     0.0    0.00    0.00   0.364   0.370   0.375   0.388   0.350   0.345   0.345   0.385   0.381   0.352   0.359   0.378   0.368
 2022 154    34     587     498       3     284      77      26     660       0     151    0.00     0.0     0.0    0.00    0.00   0.362   0.369   0.374   0.388   0.350   0.345   0.345   0.384   0.381   0.352   0.358   0.378   0.367
 2022 155    35     587     497       3     303      77      27     686       0     151    0.00     0.0     0.0    0.00    0.00   0.358   0.367   0.373   0.387   0.350   0.344   0.345   0.384   0.380   0.351   0.358   0.378   0.367
 2022 156    36     588     498       3     322      77      28     711       0     151    0.00     0.0     0.0    0.00    0.00   0.365   0.370   0.375   0.388   0.350   0.345   0.345   0.385   0.378   0.352   0.359   0.378   0.368
 2022 157    37     586     496       3     342      78      29     737       0     151    0.00     0.0     0.0    0.00    0.00   0.356   0.366   0.372   0.387   0.349   0.344   0.345   0.384   0.380   0.351   0.358   0.378   0.367
 2022 158    38     591     501       3     373      90      30     762       0     151    0.00     0.0     0.0    0.16    0.00   0.378   0.375   0.378   0.391   0.352   0.346   0.347   0.386   0.382   0.353   0.359   0.379   0.368
 2022 159    39     586     496       3     396      90      31     787       0     151    0.00     0.0     0.0    0.00    0.00   0.356   0.366   0.371   0.387   0.350   0.344   0.345   0.384   0.380   0.351   0.358   0.378   0.367
 2022 160    40     588     498       3     414      90      32     813       0     151    0.00     0.0     0.0    0.00    0.00   0.368   0.371   0.375   0.389   0.351   0.346   0.346   0.385   0.378   0.352   0.359   0.378   0.368
 2022 161    41     587     497       3     435      90      33     838       0     151    0.00     0.0     0.0    0.00    0.00   0.358   0.367   0.372   0.387   0.350   0.345   0.345   0.384   0.381   0.352   0.358   0.378   0.367
 2022 162    42     585     495       3     453      90      34     864       0     151    0.00     0.0     0.0    0.00    0.00   0.355   0.365   0.371   0.386   0.349   0.344   0.345   0.384   0.377   0.351   0.358   0.378   0.367
 2022 163    43     584     494       3     472      90      35     889       0     151    0.00     0.0     0.0    0.00    0.00   0.355   0.365   0.371   0.386   0.349   0.344   0.345   0.381   0.373   0.351   0.357   0.378   0.367
 2022 164    44     580     490       3     490      90      36     914       0     151    0.00     0.0     0.0    0.00    0.00   0.341   0.359   0.366   0.383   0.348   0.343   0.343   0.378   0.369   0.350   0.355   0.377   0.366
 2022 165    45     580     490       3     508      90      37     940       0     151    0.00     0.0     0.0    0.00    0.00   0.357   0.366   0.371   0.386   0.346   0.344   0.345   0.370   0.364   0.351   0.351   0.378   0.367
 2022 166    46     579     490       3     526      90      38     965       0     151    0.00     0.0     0.0    0.00    0.00   0.355   0.365   0.371   0.386   0.349   0.344   0.345   0.372   0.362   0.351   0.349   0.378   0.366
 2022 167    47     579     489       3     544      90      39     991       0     151    0.00     0.0     0.0    0.00    0.00   0.355   0.365   0.371   0.386   0.349   0.344   0.345   0.374   0.362   0.351   0.347   0.377   0.366
 2022 168    48     577     487       3     561      90      40    1016       0     151    0.00     0.0     0.0    0.00    0.00   0.346   0.361   0.368   0.384   0.348   0.343   0.344   0.375   0.361   0.351   0.346   0.376   0.364
 2022 169    49     575     485       3     579      90      41    1041       0     151    0.00     0.0     0.0    0.00    0.00   0.348   0.362   0.368   0.384   0.348   0.343   0.344   0.368   0.358   0.351   0.344   0.374   0.363
 2022 170    50     574     484       3     596      90      42    1067       0     151    0.00     0.0     0.0    0.00    0.00   0.352   0.363   0.369   0.385   0.348   0.344   0.344   0.366   0.356   0.351   0.342   0.372   0.362
 2022 171    51     575     485       3     614      90      43    1092       0     151    0.00     0.0     0.0    0.00    0.00   0.358   0.366   0.371   0.386   0.349   0.345   0.345   0.368   0.356   0.352   0.341   0.371   0.361
 2022 172    52     579     489       3     631      90      44    1118       0     151    0.00     0.0     0.0    0.00    0.00   0.370   0.372   0.375   0.389   0.351   0.346   0.346   0.375   0.359   0.352   0.342   0.371   0.361
 2022 173    53     582     492       3     648      90      45    1143       0     151    0.00     0.0     0.0    0.00    0.00   0.363   0.368   0.373   0.387   0.350   0.345   0.345   0.385   0.367   0.352   0.346   0.373   0.361
 2022 174    54     581     491       3     665      90      46    1168       0     151    0.00     0.0     0.0    0.00    0.00   0.353   0.364   0.369   0.385   0.349   0.344   0.344   0.384   0.371   0.351   0.350   0.375   0.362
 2022 175    55     583     493       3     683      91      47    1194       0     151    0.00     0.0     0.0    0.00    0.00   0.362   0.367   0.372   0.387   0.350   0.345   0.345   0.380   0.370   0.352   0.351   0.377   0.363
 2022 176    56     585     495       3     700      91      48    1219       0     151    0.00     0.0     0.0    0.00    0.00   0.365   0.369   0.373   0.387   0.350   0.345   0.345   0.384   0.371   0.352   0.353   0.378   0.366
 2022 177    57     587     497       3     718      91      49    1245       0     151    0.00     0.0     0.0    0.00    0.00   0.368   0.370   0.374   0.388   0.350   0.345   0.346   0.385   0.375   0.352   0.355   0.378   0.368
 2022 178    58     586     496       3     737      91      50    1270       0     151    0.00     0.0     0.0    0.00    0.00   0.357   0.365   0.370   0.386   0.349   0.344   0.345   0.384   0.380   0.352   0.358   0.378   0.367
 2022 179    59     585     495       3     756      91      51    1295       0     151    0.00     0.0     0.0    0.00    0.00   0.359   0.366   0.371   0.386   0.349   0.344   0.345   0.382   0.376   0.352   0.358   0.378   0.367
 2022 180    60     584     494       3     775      91      52    1321       0     151    0.00     0.0     0.0    0.00    0.00   0.355   0.364   0.369   0.385   0.348   0.344   0.344   0.382   0.373   0.351   0.357   0.378   0.367
 2022 181    61     585     495       3     793      91      53    1346       0     151    0.00     0.0     0.0    0.00    0.00   0.365   0.369   0.373   0.387   0.350   0.345   0.345   0.379   0.370   0.352   0.356   0.378   0.368
 2022 182    62     586     496       3     812      91      54    1372       0     151    0.00     0.0     0.0    0.00    0.00   0.365   0.369   0.373   0.387   0.350   0.345   0.345   0.385   0.371   0.352   0.356   0.378   0.368
 2022 183    63     587     498       6     853     117      55    1397       0     151    0.00     0.0     0.0    2.90    0.00   0.364   0.368   0.372   0.387   0.350   0.345   0.345   0.385   0.381   0.352   0.359   0.378   0.368
 2022 184    64     587     497       6     880     125      56    1422       0     151    0.00     0.0     0.0    0.00    0.00   0.360   0.366   0.371   0.386   0.349   0.344   0.345   0.385   0.381   0.352   0.359   0.378   0.368
 2022 185    65     585     495       6     899     125      57    1448       0     151    0.00     0.0     0.0    0.00    0.00   0.355   0.364   0.369   0.385   0.348   0.344   0.344   0.384   0.377   0.352   0.358   0.378   0.367
 2022 186    66     586     496      10     941     154      58    1473       0     151    0.00     0.0     0.0    3.79    0.00   0.357   0.365   0.370   0.385   0.349   0.344   0.344   0.384   0.381   0.352   0.358   0.378   0.367
 2022 187    67     589     500      10     960     155      59    1499       0     151    0.00     0.0     0.0    0.00    0.00   0.373   0.373   0.375   0.389   0.351   0.346   0.346   0.386   0.380   0.353   0.359   0.379   0.368
 2022 188    68     588     498      10     992     166      60    1524       0     151    0.00     0.0     0.0    0.14    0.00   0.366   0.369   0.373   0.387   0.350   0.345   0.345   0.385   0.381   0.352   0.359   0.378   0.368
 2022 189    69     586     496      10    1012     166      61    1549       0     151    0.00     0.0     0.0    0.00    0.00   0.358   0.365   0.370   0.386   0.349   0.344   0.344   0.384   0.381   0.352   0.358   0.378   0.367
 2022 190    70     584     494      10    1031     166      62    1575       0     151    0.00     0.0     0.0    0.00    0.00   0.355   0.364   0.369   0.385   0.348   0.344   0.344   0.381   0.376   0.352   0.358   0.378   0.367
 2022 191    71     583     493      10    1050     168      63    1600       0     151    0.00     0.0     0.0    0.00    0.00   0.352   0.362   0.367   0.384   0.348   0.343   0.344   0.383   0.373   0.351   0.357   0.378   0.367
 2022 192    72     583     493      10    1068     168      64    1626       0     151    0.00     0.0     0.0    0.00    0.00   0.360   0.366   0.370   0.386   0.349   0.344   0.345   0.377   0.370   0.352   0.356   0.378   0.368
 2022 193    73     583     493      10    1086     168      65    1651       0     151    0.00     0.0     0.0    0.00    0.00   0.361   0.366   0.371   0.386   0.349   0.344   0.345   0.379   0.368   0.352   0.354   0.378   0.368
 2022 194    74     583     493      10    1105     168      66    1676       0     151    0.00     0.0     0.0    0.00    0.00   0.358   0.365   0.370   0.386   0.349   0.344   0.344   0.381   0.369   0.352   0.354   0.378   0.367
 2022 195    75     580     490      10    1123     168      67    1702       0     151    0.00     0.0     0.0    0.00    0.00   0.347   0.360   0.366   0.383   0.347   0.343   0.343   0.379   0.367   0.351   0.352   0.377   0.367
 2022 196    76     579     490      10    1141     168      68    1727       0     151    0.00     0.0     0.0    0.00    0.00   0.358   0.365   0.370   0.386   0.347   0.344   0.344   0.370   0.363   0.352   0.350   0.378   0.367
 2022 197    77     581     491      10    1158     168      69    1753       0     151    0.00     0.0     0.0    0.00    0.00   0.365   0.369   0.373   0.387   0.350   0.345   0.345   0.372   0.362   0.352   0.349   0.378   0.367
 2022 198    78     581     491      10    1176     168      70    1778       0     151    0.00     0.0     0.0    0.00    0.00   0.358   0.365   0.370   0.386   0.349   0.344   0.344   0.380   0.364   0.352   0.349   0.378   0.367
 2022 199    79     579     489      10    1194     168      71    1803       0     151    0.00     0.0     0.0    0.00    0.00   0.349   0.361   0.367   0.384   0.347   0.343   0.343   0.378   0.364   0.351   0.349   0.377   0.366
 2022 200    80     578     488      10    1212     168      72    1829       0     151    0.00     0.0     0.0    0.00    0.00   0.356   0.364   0.369   0.385   0.348   0.344   0.344   0.370   0.362   0.352   0.347   0.377   0.365
 2022 201    81     578     488      10    1229     168      73    1854       0     151    0.00     0.0     0.0    0.00    0.00   0.358   0.365   0.370   0.386   0.349   0.344   0.344   0.371   0.360   0.352   0.346   0.376   0.365
 2022 202    82     585     495      11    1256     186      74    1880       0     151    0.00     0.0     0.0    0.80    0.00   0.355   0.364   0.369   0.385   0.348   0.344   0.344   0.384   0.380   0.351   0.358   0.378   0.367
 2022 203    83     584     494      11    1275     186      75    1905       0     151    0.00     0.0     0.0    0.00    0.00   0.357   0.365   0.370   0.385   0.349   0.344   0.344   0.378   0.374   0.352   0.358   0.378   0.367
 2022 204    84     583     493      11    1293     186      76    1930       0     151    0.00     0.0     0.0    0.00    0.00   0.359   0.366   0.371   0.386   0.349   0.344   0.344   0.377   0.371   0.352   0.356   0.378   0.367
 2022 205    85     584     494      11    1311     186      77    1956       0     151    0.00     0.0     0.0    0.00    0.00   0.362   0.367   0.372   0.387   0.349   0.344   0.345   0.378   0.369   0.352   0.355   0.378   0.368
 2022 206    86     592     502      11    1332     191      78    1981       0     151    0.00     0.0     0.0    0.00    0.00   0.383   0.377   0.379   0.391   0.352   0.347   0.347   0.386   0.382   0.353   0.360   0.379   0.369
 2022 207    87     589     500      11    1356     191      79    2007       0     151    0.00     0.0     0.0    0.00    0.00   0.372   0.372   0.375   0.389   0.351   0.346   0.346   0.385   0.382   0.352   0.359   0.379   0.368
 2022 208    88     589     499      13    1399     215      80    2032       0     151    0.00     0.0     0.0    2.56    0.00   0.371   0.372   0.375   0.389   0.351   0.345   0.346   0.385   0.382   0.352   0.359   0.378   0.368
 2022 209    89     589     499      13    1421     216      81    2057       0     151    0.00     0.0     0.0    0.00    0.00   0.369   0.371   0.375   0.388   0.350   0.345   0.346   0.385   0.381   0.352   0.359   0.378   0.368
 2022 210    90     590     500      13    1441     216      82    2083       0     151    0.00     0.0     0.0    0.00    0.00   0.372   0.373   0.376   0.389   0.351   0.346   0.346   0.385   0.382   0.352   0.359   0.379   0.368
 2022 211    91     586     496      13    1463     216      83    2108       0     151    0.00     0.0     0.0    0.00    0.00   0.359   0.367   0.371   0.386   0.349   0.344   0.344   0.384   0.381   0.352   0.358   0.378   0.367
 2022 212    92     587     497      13    1482     216      84    2134       0     151    0.00     0.0     0.0    0.00    0.00   0.363   0.369   0.373   0.387   0.350   0.345   0.345   0.384   0.377   0.352   0.359   0.378   0.368
 2022 213    93     585     495      13    1501     216      85    2159       0     151    0.00     0.0     0.0    0.00    0.00   0.355   0.365   0.370   0.385   0.348   0.344   0.344   0.384   0.376   0.351   0.358   0.378   0.367
 2022 214    94     584     494      13    1519     217      86    2184       0     151    0.00     0.0     0.0    0.00    0.00   0.353   0.364   0.370   0.385   0.348   0.344   0.344   0.384   0.376   0.351   0.358   0.377   0.367
 2022 215    95     584     494      13    1538     217      87    2210       0     151    0.00     0.0     0.0    0.00    0.00   0.359   0.367   0.372   0.386   0.349   0.344   0.344   0.379   0.372   0.352   0.357   0.378   0.367
 2022 216    96     583     494      13    1556     217      88    2235       0     151    0.00     0.0     0.0    0.00    0.00   0.358   0.367   0.372   0.386   0.349   0.344   0.344   0.380   0.370   0.352   0.355   0.378   0.367
 2022 217    97     582     492      13    1575     217      89    2261       0     151    0.00     0.0     0.0    0.00    0.00   0.353   0.365   0.370   0.385   0.348   0.344   0.344   0.380   0.368   0.351   0.354   0.377   0.367
 2022 218    98     583     493      13    1593     217      90    2286       0     151    0.00     0.0     0.0    0.00    0.00   0.363   0.369   0.373   0.387   0.350   0.345   0.345   0.377   0.367   0.352   0.352   0.378   0.368
 2022 219    99     589     499      13    1611     218      91    2311       0     151    0.00     0.0     0.0    0.00    0.00   0.381   0.377   0.379   0.391   0.352   0.347   0.347   0.386   0.372   0.353   0.354   0.379   0.368
 2022 220   100     587     497      13    1632     218      92    2337       0     151    0.00     0.0     0.0    0.00    0.00   0.360   0.368   0.373   0.387   0.349   0.344   0.345   0.384   0.381   0.352   0.358   0.378   0.367
 2022 221   101     586     496      13    1651     218      93    2362       0     151    0.00     0.0     0.0    0.00    0.00   0.358   0.367   0.372   0.386   0.349   0.344   0.344   0.384   0.377   0.351   0.358   0.378   0.367
 2022 222   102     584     495      13    1670     218      94    2388       0     151    0.00     0.0     0.0    0.00    0.00   0.356   0.366   0.371   0.386   0.349   0.344   0.344   0.383   0.374   0.351   0.358   0.378   0.367
 2022 223   103     584     494      13    1688     218      95    2413       0     151    0.00     0.0     0.0    0.00    0.00   0.357   0.367   0.372   0.386   0.349   0.344   0.344   0.380   0.371   0.351   0.356   0.378   0.367
 2022 224   104     582     492      13    1706     218      96    2438       0     151    0.00     0.0     0.0    0.00    0.00   0.354   0.365   0.371   0.385   0.348   0.344   0.344   0.380   0.369   0.351   0.355   0.377   0.367
 2022 225   105     583     493      13    1724     218      97    2464       0     151    0.00     0.0     0.0    0.00    0.00   0.359   0.368   0.372   0.387   0.349   0.344   0.344   0.377   0.367   0.352   0.353   0.378   0.367
 2022 226   106     583     493      13    1743     218      98    2489       0     151    0.00     0.0     0.0    0.00    0.00   0.361   0.368   0.373   0.387   0.349   0.344   0.345   0.380   0.367   0.352   0.352   0.378   0.367
 2022 227   107     588     499      14    1769     230      99    2515       0     151    0.00     0.0     0.0    0.14    0.00   0.367   0.371   0.375   0.388   0.350   0.345   0.345   0.385   0.381   0.352   0.359   0.378   0.368
 2022 228   108     592     502      14    1790     230     100    2540       0     151    0.00     0.0     0.0    0.00    0.00   0.381   0.377   0.379   0.391   0.352   0.347   0.347   0.386   0.382   0.353   0.360   0.379   0.368
 2022 229   109     590     500      14    1814     230     101    2565       0     151    0.00     0.0     0.0    0.00    0.00   0.373   0.374   0.377   0.389   0.351   0.346   0.346   0.385   0.382   0.352   0.359   0.379   0.368
 2022 230   110     587     497      14    1835     230     102    2591       0     151    0.00     0.0     0.0    0.00    0.00   0.362   0.369   0.374   0.387   0.350   0.345   0.345   0.384   0.381   0.352   0.358   0.378   0.367
 2022 231   111     588     498      14    1855     230     103    2616       0     151    0.00     0.0     0.0    0.00    0.00   0.365   0.370   0.374   0.388   0.350   0.345   0.345   0.385   0.380   0.352   0.359   0.378   0.368
 2022 232   112     588     498      14    1874     230     104    2642       0     151    0.00     0.0     0.0    0.00    0.00   0.364   0.370   0.374   0.388   0.350   0.345   0.345   0.384   0.381   0.352   0.359   0.378   0.368
 2022 233   113     587     497      14    1894     230     105    2667       0     151    0.00     0.0     0.0    0.00    0.00   0.361   0.369   0.373   0.387   0.349   0.344   0.345   0.384   0.381   0.352   0.358   0.378   0.367
 2022 234   114     587     497      14    1913     230     106    2692       0     151    0.00     0.0     0.0    0.00    0.00   0.361   0.369   0.373   0.387   0.349   0.344   0.345   0.384   0.379   0.352   0.358   0.378   0.367
 2022 235   115     586     497      14    1932     230     107    2718       0     151    0.00     0.0     0.0    0.00    0.00   0.361   0.369   0.373   0.387   0.349   0.344   0.345   0.384   0.378   0.352   0.358   0.378   0.367
 2022 236   116     587     497      14    1951     230     108    2743       0     151    0.00     0.0     0.0    0.00    0.00   0.364   0.370   0.374   0.388   0.350   0.345   0.345   0.385   0.377   0.352   0.359   0.378   0.368
 2022 237   117     587     497      14    1970     230     109    2769       0     151    0.00     0.0     0.0    0.00    0.00   0.363   0.369   0.374   0.387   0.350   0.345   0.345   0.384   0.379   0.352   0.358   0.378   0.367
 2022 238   118     590     500      14    1989     230     110    2794       0     151    0.00     0.0     0.0    0.00    0.00   0.373   0.373   0.377   0.389   0.351   0.346   0.346   0.385   0.380   0.352   0.359   0.378   0.368
 2022 239   119     587     497      14    2010     230     111    2819       0     151    0.00     0.0     0.0    0.00    0.00   0.360   0.368   0.373   0.387   0.349   0.344   0.345   0.384   0.381   0.352   0.358   0.378   0.367
 2022 240   120     586     496      14    2029     230     112    2845       0     151    0.00     0.0     0.0    0.00    0.00   0.360   0.368   0.373   0.387   0.349   0.344   0.345   0.384   0.378   0.351   0.358   0.378   0.367
 2022 241   121     587     497      14    2048     230     113    2870       0     151    0.00     0.0     0.0    0.00    0.00   0.363   0.369   0.374   0.387   0.350   0.345   0.345   0.384   0.376   0.352   0.358   0.378   0.367
 2022 242   122     587     497      14    2067     230     114    2896       0     151    0.00     0.0     0.0    0.00    0.00   0.362   0.369   0.374   0.387   0.350   0.345   0.345   0.384   0.377   0.352   0.358   0.378   0.367
 2022 243   123     589     499      14    2087     232     115    2921       0     151    0.00     0.0     0.0    0.00    0.00   0.368   0.372   0.375   0.388   0.350   0.345   0.345   0.385   0.381   0.352   0.359   0.378   0.368