*MANAGEMENT OPERATIONS DAILY OUTPUT FILE

*DSSAT Cropping System Model Ver. 4.8.2.000 -release  JAN 23, 2025 23:43:37

*RUN   1        : silt_loam_13in_irr        MZCER048 UNLI2201    1
 MODEL          : MZCER048 - Maize
 EXPERIMENT     : UNLI2201 MZ IRRIGATED MAIZE PRODUCTION
 DATA PATH      :
 TREATMENT  1   : silt_loam_13in_irr        MZCER048
  

@YEAR DOY   DAS   DAP  IR#C  IRRC  NAPC  NICM  R#AC RESNC RESPC
 2022 121     1     0     0     0     0     0     0     0     0
 2022 122     2     0     0     0     0     0     0     0     0
 2022 123     3     0     0     0     0     0     0     0     0
 2022 124     4     0     0     0     0     0     0     0     0
 2022 125     5     0     0     0     0     0     0     0     0
 2022 126     6     0     0     0     0     0     0     0     0
 2022 127     7     0     0     0     0     0     0     0     0
 2022 128     8     0     0     0     0     0     0     0     0
 2022 129     9     0     2    25     0     0     0     0     0
 2022 130    10     1     3    51     0     0     0     0     0
 2022 131    11     2     4    76     0     0     0     0     0
 2022 132    12     3     5   102     0     0     0     0     0
 2022 133    13     4     6   127     0     0     0     0     0
 2022 134    14     5     7   152     0     0     0     0     0
 2022 135    15     6     8   178     0     0     0     0     0
 2022 136    16     7     9   203     0     0     0     0     0
 2022 137    17     8    10   229     0     0     0     0     0
 2022 138    18     9    11   254     0     0     0     0     0
 2022 139    19    10    12   279     0     0     0     0     0
 2022 140    20    11    13   305     0     0     0     0     0
 2022 141    21    12    14   330     0     0     0     0     0
 2022 142    22    13    15   356     0     0     0     0     0
 2022 143    23    14    16   381     0     0     0     0     0
 2022 144    24    15    17   406     0     0     0     0     0
 2022 145    25    16    18   432     0     0     0     0     0
 2022 146    26    17    19   457     0     0     0     0     0
 2022 147    27    18    20   483     0     0     0     0     0
 2022 148    28    19    21   508     0     0     0     0     0
 2022 149    29    20    22   533     0     0     0     0     0
 2022 150    30    21    23   559     0     0     0     0     0
 2022 151    31    22    24   584     0     0     0     0     0
 2022 152    32    23    25   610     0     0     0     0     0
 2022 153    33    24    26   635     0     0     0     0     0
 2022 154    34    25    27   660     0     0     0     0     0
 2022 155    35    26    28   686     0     0     0     0     0
 2022 156    36    27    29   711     0     0     0     0     0
 2022 157    37    28    30   737     0     0     0     0     0
 2022 158    38    29    31   762     0     0     0     0     0
 2022 159    39    30    32   787     0     0     0     0     0
 2022 160    40    31    33   813     0     0     0     0     0
 2022 161    41    32    34   838     0     0     0     0     0
 2022 162    42    33    35   864     0     0     0     0     0
 2022 163    43    34    36   889     0     0     0     0     0
 2022 164    44    35    37   914     0     0     0     0     0
 2022 165    45    36    38   940     0     0     0     0     0
 2022 166    46    37    39   965     0     0     0     0     0
 2022 167    47    38    40   991     0     0     0     0     0
 2022 168    48    39    41  1016     0     0     0     0     0
 2022 169    49    40    42  1041     0     0     0     0     0
 2022 170    50    41    43  1067     0     0     0     0     0
 2022 171    51    42    44  1092     0     0     0     0     0
 2022 172    52    43    45  1118     0     0     0     0     0
 2022 173    53    44    46  1143     0     0     0     0     0
 2022 174    54    45    47  1168     0     0     0     0     0
 2022 175    55    46    48  1194     0     0     0     0     0
 2022 176    56    47    49  1219     0     0     0     0     0
 2022 177    57    48    50  1245     0     0     0     0     0
 2022 178    58    49    51  1270     0     0     0     0     0
 2022 179    59    50    52  1295     0     0     0     0     0
 2022 180    60    51    53  1321     0     0     0     0     0
 2022 181    61    52    54  1346     0     0     0     0     0
 2022 182    62    53    55  1372     0     0     0     0     0
 2022 183    63    54    56  1397     0     0     0     0     0
 2022 184    64    55    57  1422     0     0     0     0     0
 2022 185    65    56    58  1448     0     0     0     0     0
 2022 186    66    57    59  1473     0     0     0     0     0
 2022 187    67    58    60  1499     0     0     0     0     0
 2022 188    68    59    61  1524     0     0     0     0     0
 2022 189    69    60    62  1549     0     0     0     0     0
 2022 190    70    61    63  1575     0     0     0     0     0
 2022 191    71    62    64  1600     0     0     0     0     0
 2022 192    72    63    65  1626     0     0     0     0     0
 2022 193    73    64    66  1651     0     0     0     0     0
 2022 194    74    65    67  1676     0     0     0     0     0
 2022 195    75    66    68  1702     0     0     0     0     0
 2022 196    76    67    69  1727     0     0     0     0     0
 2022 197    77    68    70  1753     0     0     0     0     0
 2022 198    78    69    71  1778     0     0     0     0     0
 2022 199    79    70    72  1803     0     0     0     0     0
 2022 200    80    71    73  1829     0     0     0     0     0
 2022 201    81    72    74  1854     0     0     0     0     0
 2022 202    82    73    75  1880     0     0     0     0     0
 2022 203    83    74    76  1905     0     0     0     0     0
 2022 204    84    75    77  1930     0     0     0     0     0
 2022 205    85    76    78  1956     0     0     0     0     0
 2022 206    86    77    79  1981     0     0     0     0     0
 2022 207    87    78    80  2007     0     0     0     0     0
 2022 208    88    79    81  2032     0     0     0     0     0
 2022 209    89    80    82  2057     0     0     0     0     0
 2022 210    90    81    83  2083     0     0     0     0     0
 2022 211    91    82    84  2108     0     0     0     0     0
 2022 212    92    83    85  2134     0     0     0     0     0
 2022 213    93    84    86  2159     0     0     0     0     0
 2022 214    94    85    87  2184     0     0     0     0     0
 2022 215    95    86    88  2210     0     0     0     0     0
 2022 216    96    87    89  2235     0     0     0     0     0
 2022 217    97    88    90  2261     0     0     0     0     0
 2022 218    98    89    91  2286     0     0     0     0     0
 2022 219    99    90    92  2311     0     0     0     0     0
 2022 220   100    91    93  2337     0     0     0     0     0
 2022 221   101    92    94  2362     0     0     0     0     0
 2022 222   102    93    95  2388     0     0     0     0     0
 2022 223   103    94    96  2413     0     0     0     0     0
 2022 224   104    95    97  2438     0     0     0     0     0
 2022 225   105    96    98  2464     0     0     0     0     0
 2022 226   106    97    99  2489     0     0     0     0     0
 2022 227   107    98   100  2515     0     0     0     0     0
 2022 228   108    99   101  2540     0     0     0     0     0
 2022 229   109   100   102  2565     0     0     0     0     0
 2022 230   110   101   103  2591     0     0     0     0     0
 2022 231   111   102   104  2616     0     0     0     0     0
 2022 232   112   103   105  2642     0     0     0     0     0
 2022 233   113   104   106  2667     0     0     0     0     0
 2022 234   114   105   107  2692     0     0     0     0     0
 2022 235   115   106   108  2718     0     0     0     0     0
 2022 236   116   107   109  2743     0     0     0     0     0
 2022 237   117   108   110  2769     0     0     0     0     0
 2022 238   118   109   111  2794     0     0     0     0     0
 2022 239   119   110   112  2819     0     0     0     0     0
 2022 240   120   111   113  2845     0     0     0     0     0
 2022 241   121   112   114  2870     0     0     0     0     0
 2022 242   122   113   115  2896     0     0     0     0     0
 2022 243   123   114   116  2921     0     0     0     0     0
 2022 244   124   115   117  2946     0     0     0     0     0
 2022 245   125   116   118  2972     0     0     0     0     0
 2022 246   126   117   119  2997     0     0     0     0     0
 2022 247   127   118   120  3023     0     0     0     0     0
 2022 248   128   119   121  3048     0     0     0     0     0
 2022 249   129   120   122  3073     0     0     0     0     0
 2022 250   130   121   123  3099     0     0     0     0     0
 2022 251   131   122   124  3124     0     0     0     0     0
 2022 252   132   123   125  3150     0     0     0     0     0
 2022 253   133   124   126  3175     0     0     0     0     0
 2022 254   134   125   127  3200     0     0     0     0     0
 2022 255   135   126   128  3226     0     0     0     0     0
 2022 256   136   127   129  3251     0     0     0     0     0
 2022 257   137   128   130  3277     0     0     0     0     0
 2022 258   138   129   131  3302     0     0     0     0     0
 2022 259   139   130   132  3327     0     0     0     0     0
 2022 260   140   131   133  3353     0     0     0     0     0
 2022 261   141   132   134  3378     0     0     0     0     0
 2022 262   142   133   135  3404     0     0     0     0     0
 2022 263   143   134   136  3429     0     0     0     0     0
