*GROWTH ASPECTS OUTPUT FILE

*DSSAT Cropping System Model Ver. 4.8.2.000 -release  JAN 23, 2025 23:43:37

*RUN   1        : silt_loam_13in_irr        MZCER048 UNLI2201    1
 MODEL          : MZCER048 - Maize
 EXPERIMENT     : UNLI2201 MZ IRRIGATED MAIZE PRODUCTION
 DATA PATH      :
 TREATMENT  1   : silt_loam_13in_irr        MZCER048
  
!                                                                                                                                                                                                                                      Root Dens. (cm/cm3) by soil depth (cm):
!                                                                                                                                                                                                                                      0-5    5-15   15-23   23-38   38-53   53-61   61-69   69-84   84-99  99-160
@YEAR DOY   DAS   DAP   L#SD   GSTD   LAID   LWAD   SWAD   GWAD   RWAD   VWAD   CWAD   G#AD   GWGD   HIAD   PWAD   P#AD   WSPD   WSGD   NSTD   EWSD  PST1A  PST2A   KSTD   LN%D   SH%D   HIPD   PWDD   PWTD     SLAD   CHTD   CWID   RDPD    RL1D    RL2D    RL3D    RL4D    RL5D    RL6D    RL7D    RL8D    RL9D   RL10D   CDAD   LDAD   SDAD   SNW0C   SNW1C  DTTD
 2022 129     9     0    0.0      0   0.00      0      0      0      0      0      0      0    0.0  0.000      0      0  0.000  0.000  0.000  0.000  0.000  0.000  0.000   0.00   0.00   0.00      0      0      0.0   0.00   0.00   0.05    0.00    0.00    0.00    0.00    0.00    0.00    0.00    0.00    0.00    0.00      0      0      0       0       0 10.11
 2022 130    10     1    0.0      0   0.00      0      0      0      0      0      0      0    0.0  0.000      0      0  0.000  0.000  0.000  0.000  0.000  0.000  0.000   0.00   0.00   0.00      0      0      0.0   0.00   0.00   0.06    0.00    0.00    0.00    0.00    0.00    0.00    0.00    0.00    0.00    0.00      0      0      0       0       0  9.87
 2022 131    11     2    0.0      0   0.00      0      0      0      0      0      0      0    0.0  0.000      0      0  0.000  0.000  0.000  0.000  0.000  0.000  0.000   0.00   0.00   0.00      0      0      0.0   0.00   0.00   0.09    0.00    0.00    0.00    0.00    0.00    0.00    0.00    0.00    0.00    0.00      0      0      0       0       0 16.47
 2022 132    12     3    0.0      0   0.00      0      0      0      0      0      0      0    0.0  0.000      0      0  0.000  0.000  0.000  0.000  0.000  0.000  0.000   0.00   0.00   0.00      0      0      0.0   0.00   0.00   0.11    0.00    0.00    0.00    0.00    0.00    0.00    0.00    0.00    0.00    0.00      0      0      0       0       0 14.94
 2022 133    13     4    0.0      0   0.00      0      0      0      0      0      0      0    0.0  0.000      0      0  0.000  0.000  0.000  0.000  0.000  0.000  0.000   0.00   0.00   0.00      0      0      0.0   0.00   0.00   0.13    0.00    0.00    0.00    0.00    0.00    0.00    0.00    0.00    0.00    0.00      0      0      0       0       0  9.12
 2022 134    14     5    0.0      0   0.00      0      0      0      0      0      0      0    0.0  0.000      0      0  0.000  0.000  0.000  0.000  0.000  0.000  0.000   0.00   0.00   0.00      0      0      0.0   0.00   0.00   0.14    0.00    0.00    0.00    0.00    0.00    0.00    0.00    0.00    0.00    0.00      0      0      0       0       0  8.88
 2022 135    15     6    0.0      0   0.00      0      0      0      0      0      0      0    0.0  0.000      0      0  0.000  0.000  0.000  0.000  0.000  0.000  0.000   0.00   0.00   0.00      0      0      0.0   0.00   0.00   0.15    0.00    0.00    0.00    0.00    0.00    0.00    0.00    0.00    0.00    0.00      0      0      0       0       0  9.67
 2022 136    16     7    0.0      0   0.00      0      0      0      0      0      0      0    0.0  0.000      0      0  0.000  0.000  0.000  0.000  0.000  0.000  0.000   0.00   0.00   0.00      0      0      0.0   0.00   0.00   0.17    0.00    0.00    0.00    0.00    0.00    0.00    0.00    0.00    0.00    0.00      0      0      0       0       0 12.79
 2022 137    17     8    1.0      1   0.00     16     16      0     16     32     32      0    0.0  0.000      0      0  0.000  0.000  0.012  0.000  0.000  0.000  0.000   4.40   0.00   0.00      0      0     23.0   0.00   0.00   0.19    0.32    0.16    0.06    0.00    0.00    0.00    0.00    0.00    0.00    0.00      0      0      0       0       0 15.27
 2022 138    18     9    2.0      1   0.01     16     16      0     17     32     32      0    0.0  0.000      0      0  0.000  0.000  0.011  0.000  0.000  0.000  0.000   4.40   0.00   0.00      0      0     42.5   0.00   0.00   0.20    0.32    0.17    0.06    0.00    0.00    0.00    0.00    0.00    0.00    0.00      0      0      0       0       0 14.32
 2022 139    19    10    2.0      1   0.01     16     16      0     18     32     32      0    0.0  0.000      0      0  0.000  0.000  0.005  0.000  0.000  0.000  0.000   4.40   0.00   0.00      0      0     64.2   0.00   0.00   0.22    0.33    0.17    0.07    0.00    0.00    0.00    0.00    0.00    0.00    0.00      0      0      0       0       0 14.14
 2022 140    20    11    2.0      1   0.01     16     16      0     18     32     32      0    0.0  0.000      0      0  0.000  0.000  0.005  0.000  0.000  0.000  0.000   4.40   0.00   0.00      0      0     66.3   0.00   0.00   0.22    0.33    0.18    0.07    0.00    0.00    0.00    0.00    0.00    0.00    0.00      0      0      0       0       0  1.45
 2022 141    21    12    2.0      1   0.01     16     16      0     18     32     32      0    0.0  0.000      0      0  0.000  0.000  0.004  0.000  0.000  0.000  0.000   4.40   0.00   0.00      0      0     38.3   0.00   0.00   0.22    0.34    0.18    0.07    0.00    0.00    0.00    0.00    0.00    0.00    0.00      0      0      0       0       0  1.03
 2022 142    22    13    2.0      1   0.00     16     16      0     19     32     32      0    0.0  0.000      0      0  0.000  0.000  0.003  0.000  0.000  0.000  0.000   4.40   0.00   0.00      0      0      5.7   0.00   0.00   0.22    0.34    0.18    0.08    0.00    0.00    0.00    0.00    0.00    0.00    0.00      0      0      0       0       0  2.61
 2022 143    23    14    2.0      1   0.00     16     16      0     19     32     32      0    0.0  0.000      0      0  0.000  0.000  0.003  0.000  0.000  0.000  0.000   4.40   0.00   0.00      0      0      8.4   0.00   0.00   0.22    0.34    0.18    0.08    0.00    0.00    0.00    0.00    0.00    0.00    0.00      0      0      0       0       0  1.70
 2022 144    24    15    3.0      1   0.00     16     16      0     19     32     32      0    0.0  0.000      0      0  0.000  0.000  0.002  0.000  0.000  0.000  0.000   4.40   0.00   0.00      0      0     11.4   0.00   0.00   0.23    0.33    0.18    0.08    0.00    0.00    0.00    0.00    0.00    0.00    0.00      0      0      0       0       0  1.94
 2022 145    25    16    3.0      1   0.00     16     16      0     19     32     32      0    0.0  0.000      0      0  0.000  0.000  0.000  0.000  0.000  0.000  0.000   4.40   0.00   0.00      0      0     22.5   0.00   0.00   0.23    0.34    0.18    0.08    0.00    0.00    0.00    0.00    0.00    0.00    0.00      0      0      0       0       0  6.68
 2022 146    26    17    3.0      1   0.01     16     16      0     20     32     32      0    0.0  0.000      0      0  0.000  0.000  0.000  0.000  0.000  0.000  0.000   4.40   0.00   0.00      0      0     39.1   0.00   0.00   0.24    0.34    0.19    0.08    0.00    0.00    0.00    0.00    0.00    0.00    0.00      0      0      0       0       0 10.56
 2022 147    27    18    3.0      1   0.01     16     16      0     21     32     32      0    0.0  0.000      0      0  0.000  0.000  0.000  0.000  0.000  0.000  0.000   4.40   0.00   0.00      0      0     68.1   0.00   0.00   0.25    0.35    0.20    0.09    0.00    0.00    0.00    0.00    0.00    0.00    0.00      0      0      0       0       0 14.98
 2022 148    28    19    4.0      1   0.03     16     16      0     23     32     32      0    0.0  0.000      0      0  0.000  0.000  0.000  0.000  0.000  0.000  0.000   4.40   0.00   0.00      0      0    165.4   0.01   0.00   0.26    0.36    0.21    0.11    0.00    0.00    0.00    0.00    0.00    0.00    0.00      0      0      0       0       0 15.07
 2022 149    29    20    4.0      1   0.04     16     16      0     27     32     32      0    0.0  0.000      0      0  0.000  0.000  0.000  0.000  0.000  0.000  0.000   4.40   0.00   0.00      0      0    274.8   0.02   0.00   0.27    0.40    0.25    0.14    0.01    0.00    0.00    0.00    0.00    0.00    0.00      0      0      0       0       0 14.83
 2022 150    30    21    4.0      1   0.05     19     16      0     31     35     35      0    0.0  0.000      0      0  0.000  0.000  0.000  0.000  0.000  0.000  0.000   4.02   0.00   0.00      0      0    277.3   0.02   0.00   0.28    0.43    0.28    0.17    0.01    0.00    0.00    0.00    0.00    0.00    0.00      0      0      0       0       0  7.12
 2022 151    31    22    4.0      1   0.06     23     16      0     36     39     39      0    0.0  0.000      0      0  0.000  0.000  0.000  0.000  0.000  0.000  0.000   3.65   0.00   0.00      0      0    275.2   0.03   0.00   0.28    0.46    0.31    0.21    0.02    0.00    0.00    0.00    0.00    0.00    0.00      0      0      0       0       0  7.11
 2022 152    32    23    5.0      1   0.07     26     16      0     44     42     42      0    0.0  0.000      0      0  0.000  0.000  0.018  0.000  0.000  0.000  0.000   3.32   0.00   0.00      0      0    271.6   0.03   0.00   0.29    0.51    0.37    0.26    0.03    0.00    0.00    0.00    0.00    0.00    0.00      0      0      0       0       0  7.28
 2022 153    33    24    5.0      1   0.08     32     16      0     53     48     48      0    0.0  0.000      0      0  0.000  0.000  0.064  0.000  0.000  0.000  0.000   2.96   0.00   0.00      0      0    264.9   0.04   0.00   0.29    0.58    0.44    0.33    0.05    0.00    0.00    0.00    0.00    0.00    0.00      0      0      0       0       0  8.55
 2022 154    34    25    5.0      1   0.10     39     16      0     63     55     55      0    0.0  0.000      0      0  0.000  0.000  0.105  0.000  0.000  0.000  0.000   2.58   0.00   0.00      0      0    256.5   0.04   0.00   0.30    0.66    0.51    0.41    0.07    0.00    0.00    0.00    0.00    0.00    0.00      0      0      0       0       0 10.74
 2022 155    35    26    5.0      1   0.12     50     16      0     74     66     66      0    0.0  0.000      0      0  0.000  0.000  0.148  0.000  0.000  0.000  0.000   2.13   0.00   0.00      0      0    245.0   0.05   0.00   0.31    0.73    0.59    0.49    0.09    0.00    0.00    0.00    0.00    0.00    0.00      0      0      0       0       0 14.99
 2022 156    36    27    6.0      1   0.15     63     16      0     82     79     79      0    0.0  0.000      0      0  0.000  0.000  0.197  0.000  0.000  0.000  0.000   1.79   0.00   0.00      0      0    233.4   0.06   0.00   0.32    0.79    0.64    0.54    0.11    0.00    0.00    0.00    0.00    0.00    0.00      0      0      0       0       0 14.32
 2022 157    37    28    6.0      1   0.17     78     16      0     93     94     94      0    0.0  0.000      0      0  0.000  0.000  0.364  0.000  0.000  0.000  0.000   1.50   0.00   0.00      0      0    220.9   0.07   0.00   0.34    0.86    0.71    0.62    0.14    0.00    0.00    0.00    0.00    0.00    0.00      0      0      0       0       0 15.48
 2022 158    38    29    6.0      1   0.19     89     16      0     94    105    105      0    0.0  0.000      0      0  0.000  0.000  0.498  0.000  0.000  0.000  0.000   1.34   0.00   0.00      0      0    210.2   0.08   0.00   0.35    0.86    0.72    0.62    0.14    0.00    0.00    0.00    0.00    0.00    0.00      0      0      0       0       0  9.77
 2022 159    39    30    6.0      1   0.21    103     16      0    102    119    119      0    0.0  0.000      0      0  0.000  0.000  0.615  0.000  0.000  0.000  0.000   1.18   0.00   0.00      0      0    199.2   0.09   0.00   0.37    0.91    0.77    0.67    0.16    0.00    0.00    0.00    0.00    0.00    0.00      0      0      0       0       0 11.83
 2022 160    40    31    7.0      2   0.20     97     16      0    113    113    113      0    0.0  0.000      0      0  0.000  0.000  0.673  0.000  0.000  0.000  0.000   1.25   0.00   0.00      0      0    206.7   0.09   0.00   0.39    0.98    0.84    0.74    0.20    0.00    0.00    0.00    0.00    0.00    0.00      0      0      0       0       0 13.73
 2022 161    41    32    7.0      2   0.19     98     16      0    122    114    114      0    0.0  0.000      0      0  0.000  0.000  0.744  0.000  0.000  0.000  0.000   1.24   0.00   0.00      0      0    197.0   0.09   0.00   0.41    1.03    0.89    0.79    0.23    0.00    0.00    0.00    0.00    0.00    0.00      0      0      0       0       0 15.26
 2022 162    42    33    7.0      2   0.19    101     16      0    131    117    117      0    0.0  0.000      0      0  0.000  0.000  0.709  0.000  0.000  0.000  0.000   1.21   0.00   0.00      0      0    188.3   0.09   0.00   0.43    1.08    0.94    0.84    0.26    0.01    0.00    0.00    0.00    0.00    0.00      0      0      0       0       1 19.67
 2022 163    43    34    8.0      2   0.19    104     16      0    139    120    120      0    0.0  0.000      0      0  0.000  0.000  0.704  0.000  0.000  0.000  0.000   1.20   0.00   0.00      0      0    180.3   0.09   0.00   0.46    1.13    0.99    0.89    0.29    0.02    0.00    0.00    0.00    0.00    0.00      0      0      0       0       1 20.59
 2022 164    44    35    8.0      2   0.19    108     16      0    147    124    124      0    0.0  0.000      0      0  0.000  0.000  0.698  0.000  0.000  0.000  0.000   1.20   0.00   0.00      0      0    173.1   0.09   0.00   0.49    1.17    1.03    0.94    0.31    0.03    0.00    0.00    0.00    0.00    0.00      0      0      0       0       2 23.20
 2022 165    45    36    9.0      2   0.19    112     16      0    156    128    128      0    0.0  0.000      0      0  0.000  0.000  0.688  0.000  0.000  0.000  0.000   1.24   0.00   0.00      0      0    166.3   0.09   0.00   0.51    1.21    1.08    0.98    0.34    0.05    0.00    0.00    0.00    0.00    0.00      0      0      0       0       3 17.50
 2022 166    46    37    9.0      2   0.19    117     16      0    165    133    133      0    0.0  0.000      0      0  0.000  0.000  0.663  0.000  0.000  0.000  0.000   1.28   0.00   0.00      0      0    160.5   0.09   0.00   0.53    1.26    1.12    1.03    0.36    0.07    0.00    0.00    0.00    0.00    0.00      0      0      0       0       3 16.47
 2022 167    47    38    9.0      3   0.19    123     16      0    176    139    139      0    0.0  0.000      0      0  0.000  0.000  0.631  0.000  0.000  0.000  0.000   1.31   0.00   0.00      0      0    152.9   0.09   0.00   0.55    1.31    1.18    1.08    0.40    0.09    0.00    0.00    0.00    0.00    0.00      0      0      0       0       4 16.06
 2022 168    48    39   10.0      3   0.20    135     16      0    185    151    151      0    0.0  0.000      0      0  0.000  0.000  0.593  0.000  0.000  0.000  0.000   1.29   0.00   0.00      0      0    150.1   0.09   0.00   0.57    1.36    1.22    1.13    0.42    0.11    0.01    0.00    0.00    0.00    0.00      0      0      0       0       5 22.37
 2022 169    49    40   10.0      3   0.22    152     17      0    195    168    168      0    0.0  0.000      0      0  0.000  0.000  0.565  0.000  0.000  0.000  0.000   1.26   0.00   0.00      0      0    148.2   0.10   0.00   0.60    1.40    1.27    1.17    0.45    0.13    0.02    0.00    0.00    0.00    0.00      0      0      0       0       6 23.53
 2022 170    50    41   11.0      3   0.25    170     18      0    203    188    188      0    0.0  0.000      0      0  0.000  0.000  0.555  0.000  0.000  0.000  0.000   1.21   0.00   0.00      0      0    146.3   0.11   0.00   0.62    1.44    1.31    1.21    0.47    0.15    0.04    0.00    0.00    0.00    0.00      0      0      0       0       7 23.45
 2022 171    51    42   11.0      3   0.27    189     19      0    210    208    208      0    0.0  0.000      0      0  0.000  0.000  0.564  0.000  0.000  0.000  0.000   1.18   0.00   0.00      0      0    143.7   0.12   0.00   0.65    1.47    1.34    1.24    0.49    0.17    0.05    0.00    0.00    0.00    0.00      0      0      0       0       8 21.30
 2022 172    52    43   11.0      3   0.28    198     20      0    217    219    219      0    0.0  0.000      0      0  0.000  0.000  0.581  0.000  0.000  0.000  0.000   1.20   0.00   0.00      0      0    139.5   0.12   0.00   0.66    1.50    1.37    1.28    0.50    0.18    0.06    0.01    0.00    0.00    0.00      0      0      0       0       9 11.60
 2022 173    53    44   12.0      3   0.28    210     22      0    228    232    232      0    0.0  0.000      0      0  0.000  0.000  0.591  0.000  0.000  0.000  0.000   1.20   0.00   0.00      0      0    135.7   0.12   0.00   0.67    1.55    1.42    1.33    0.53    0.20    0.08    0.02    0.00    0.00    0.00      0      0      0       0      10 11.95
 2022 174    54    45   12.0      3   0.31    229     25      0    241    255    255      0    0.0  0.000      0      0  0.000  0.000  0.577  0.000  0.000  0.000  0.000   1.15   0.00   0.00      0      0    133.4   0.13   0.00   0.69    1.61    1.48    1.38    0.56    0.23    0.09    0.04    0.00    0.00    0.00      0      0      0       0      11 18.63
 2022 175    55    46   12.0      3   0.33    249     30      0    250    278    278      0    0.0  0.000      0      0  0.000  0.000  0.571  0.000  0.000  0.000  0.000   1.11   0.00   0.00      0      0    130.8   0.14   0.00   0.71    1.65    1.52    1.42    0.59    0.24    0.11    0.06    0.00    0.00    0.00      0      0      0       0      13 17.65
 2022 176    56    47   13.0      3   0.33    261     33      0    262    294    294      0    0.0  0.000      0      0  0.000  0.000  0.589  0.000  0.000  0.000  0.000   1.10   0.00   0.00      0      0    127.2   0.14   0.00   0.72    1.70    1.57    1.48    0.62    0.27    0.13    0.07    0.00    0.00    0.00      0      0      0       0      14 12.10
 2022 177    57    48   13.0      3   0.33    268     35      0    276    303    303      0    0.0  0.000      0      0  0.000  0.000  0.610  0.000  0.000  0.000  0.000   1.11   0.00   0.00      0      0    122.9   0.14   0.00   0.73    1.76    1.63    1.54    0.65    0.29    0.15    0.09    0.01    0.00    0.00      0      0      0       0      15  8.11
 2022 178    58    49   13.0      3   0.34    281     39      0    292    320    320      0    0.0  0.000      0      0  0.000  0.000  0.612  0.000  0.000  0.000  0.000   1.08   0.00   0.00      0      0    119.6   0.14   0.00   0.74    1.83    1.71    1.61    0.69    0.32    0.17    0.12    0.01    0.00    0.00      0      0      0       0      17 13.35
 2022 179    59    50   13.0      3   0.35    296     45      0    305    341    341      0    0.0  0.000      0      0  0.000  0.000  0.602  0.000  0.000  0.000  0.000   1.05   0.00   0.00      0      0    116.9   0.15   0.00   0.75    1.89    1.76    1.67    0.72    0.35    0.19    0.13    0.02    0.00    0.00      0      0      0       0      18 15.81
 2022 180    60    51   14.0      3   0.36    316     54      0    313    370    370      0    0.0  0.000      0      0  0.000  0.000  0.599  0.000  0.000  0.000  0.000   1.00   0.00   0.00      0      0    114.9   0.16   0.00   0.77    1.92    1.79    1.70    0.74    0.36    0.20    0.15    0.02    0.00    0.00      0      0      0       0      20 20.10
 2022 181    61    52   14.0      3   0.38    335     63      0    317    399    399      0    0.0  0.000      0      0  0.000  0.000  0.605  0.000  0.000  0.000  0.000   0.97   0.00   0.00      0      0    112.6   0.16   0.00   0.79    1.93    1.81    1.72    0.75    0.37    0.20    0.15    0.02    0.00    0.00      0      0      0       0      21 19.00
 2022 182    62    53   15.0      3   0.38    350     72      0    325    422    422      0    0.0  0.000      0      0  0.000  0.000  0.620  0.000  0.000  0.000  0.000   0.95   0.00   0.00      0      0    109.7   0.16   0.00   0.81    1.97    1.84    1.75    0.77    0.38    0.21    0.16    0.03    0.00    0.00      0      0      0       0      23 16.20
 2022 183    63    54   15.0      3   0.39    363     80      0    336    443    443      0    0.0  0.000      0      0  0.000  0.000  0.630  0.000  0.000  0.000  0.000   0.93   0.00   0.00      0      0    106.6   0.17   0.00   0.82    2.01    1.89    1.80    0.80    0.40    0.23    0.18    0.04    0.00    0.00      0      0      0       0      24 14.15
 2022 184    64    55   15.0      3   0.40    379     92      0    343    472    472      0    0.0  0.000      0      0  0.000  0.000  0.635  0.000  0.000  0.000  0.000   0.91   0.00   0.00      0      0    104.1   0.17   0.00   0.84    2.04    1.92    1.83    0.81    0.42    0.24    0.19    0.05    0.00    0.00      0      0      0       0      26 19.51
 2022 185    65    56   16.0      3   0.40    397    107      0    352    504    504      0    0.0  0.000      0      0  0.000  0.000  0.628  0.000  0.000  0.000  0.000   0.89   0.00   0.00      0      0    101.9   0.17   0.00   0.86    2.07    1.95    1.86    0.83    0.43    0.25    0.20    0.06    0.00    0.00      0      0      0       0      28 19.66
 2022 186    66    57   16.0      3   0.41    415    125      0    358    540    540      0    0.0  0.000      0      0  0.000  0.000  0.626  0.000  0.000  0.000  0.000   0.85   0.00   0.00      0      0     99.7   0.18   0.00   0.87    2.09    1.97    1.88    0.85    0.44    0.26    0.21    0.06    0.00    0.00      0      0      0       0      29 19.88
 2022 187    67    58   17.0      3   0.42    428    138      0    357    566    566      0    0.0  0.000      0      0  0.000  0.000  0.635  0.000  0.000  0.000  0.000   0.85   0.00   0.00      0      0     97.0   0.18   0.00   0.88    2.09    1.97    1.88    0.84    0.44    0.26    0.21    0.06    0.00    0.00      0      0      0       0      31 15.80
 2022 188    68    59   17.0      3   0.42    445    160      0    358    606    606      0    0.0  0.000      0      0  0.000  0.000  0.638  0.000  0.000  0.000  0.000   0.82   0.00   0.00      0      0     94.8   0.18   0.00   0.90    2.09    1.97    1.88    0.84    0.44    0.26    0.21    0.07    0.00    0.00      0      0      0       0      33 16.05
 2022 189    69    60   17.0      3   0.43    463    194      0    359    657    658      0    0.0  0.000      1      0  0.000  0.000  0.633  0.000  0.000  0.000  0.000   0.79   0.00   0.00      0      1     92.8   0.18   0.00   0.91    2.09    1.97    1.88    0.85    0.45    0.26    0.21    0.07    0.00    0.00      0      0      0       0      35 17.20
 2022 190    70    61   18.0      3   0.43    479    230      0    360    709    711      0    0.0  0.000      2      0  0.000  0.000  0.633  0.000  0.000  0.000  0.000   0.77   0.00   0.00      0      2     90.6   0.19   0.00   0.93    2.09    1.97    1.88    0.85    0.45    0.26    0.21    0.07    0.00    0.00      0      0      0       0      37 19.62
 2022 191    71    62   18.0      3   0.43    492    268      0    361    761    764      0    0.0  0.000      3      0  0.000  0.000  0.639  0.000  0.000  0.000  0.000   0.74   0.00   0.00      0      3     88.2   0.19   0.00   0.94    2.09    1.97    1.89    0.85    0.45    0.27    0.21    0.07    0.00    0.00      0      0      0       0      38 21.24
 2022 192    72    63   18.0      3   0.43    501    293      0    371    794    799      0    0.0  0.000      5      0  0.000  0.000  0.647  0.000  0.000  0.000  0.000   0.74   0.00   0.01      0      5     85.3   0.19   0.00   0.95    2.13    2.01    1.92    0.87    0.47    0.28    0.23    0.08    0.01    0.00      0      0      0       0      40 13.40
 2022 193    73    64   19.0      3   0.42    508    316      0    380    825    833      0    0.0  0.000      8      0  0.000  0.000  0.651  0.000  0.000  0.000  0.000   0.74   0.00   0.01      0      8     82.5   0.19   0.00   0.97    2.16    2.05    1.96    0.89    0.48    0.29    0.24    0.09    0.01    0.00      0      0      0       0      42 13.55
 2022 194    74    65   19.0      3   0.42    518    350      0    381    868    879      0    0.0  0.000     11      0  0.000  0.000  0.641  0.000  0.000  0.000  0.000   0.73   0.00   0.01      0     11     80.1   0.19   0.00   0.98    2.16    2.05    1.96    0.89    0.48    0.29    0.24    0.09    0.01    0.00      0      0      0       0      44 18.69
 2022 195    75    66   19.0      3   0.41    530    389      0    382    919    936      0    0.0  0.000     17      0  0.000  0.000  0.627  0.000  0.000  0.000  0.000   0.72   0.00   0.02      0     17     78.0   0.19   0.00   1.00    2.16    2.05    1.96    0.89    0.49    0.29    0.24    0.09    0.02    0.00      0      0      0       0      46 21.33
 2022 196    76    67   20.0      3   0.41    540    423      0    384    962    987      0    0.0  0.000     25      0  0.000  0.000  0.621  0.000  0.000  0.000  0.000   0.72   0.00   0.02      0     25     75.9   0.19   0.00   1.01    2.17    2.05    1.97    0.90    0.49    0.29    0.24    0.10    0.02    0.00      0      0      0       0      48 18.04
 2022 197    77    68   20.0      3   0.40    547    449      0    384    995   1025      0    0.0  0.000     30      0  0.000  0.000  0.624  0.000  0.000  0.000  0.000   0.72   0.00   0.03      0     30     73.5   0.19   0.00   1.02    2.16    2.05    1.96    0.90    0.49    0.30    0.25    0.10    0.02    0.00      0      0      0       0      50 19.06
 2022 198    78    69   20.0      3   0.40    556    475      0    386   1030   1074      0    0.0  0.000     43      0  0.000  0.000  0.626  0.000  0.000  0.000  0.000   0.72   0.00   0.04      0     43     71.5   0.19   0.00   1.04    2.17    2.06    1.97    0.90    0.49    0.30    0.25    0.10    0.02    0.00      0      0      0       0      52 17.55
 2022 199    79    70   20.0      3   0.39    565    501      0    387   1066   1127      0    0.0  0.000     60      0  0.000  0.000  0.622  0.000  0.000  0.000  0.000   0.72   0.00   0.05      0     60     69.7   0.19   0.00   1.05    2.17    2.06    1.97    0.90    0.50    0.30    0.25    0.10    0.02    0.00      0      0      0       0      54 20.09
 2022 200    80    71   20.0      3   0.39    575    518      0    391   1093   1176      0    0.0  0.000     83      0  0.000  0.000  0.617  0.000  0.000  0.000  0.000   0.74   0.00   0.07      0     83     67.8   0.19   0.00   1.06    2.18    2.07    1.99    0.91    0.50    0.31    0.26    0.11    0.03    0.00      0      0      0       0      55 16.90
 2022 201    81    72   20.0      3   0.39    583    531      0    396   1114   1223      0    0.0  0.000    109      0  0.000  0.000  0.610  0.000  0.000  0.000  0.000   0.75   0.00   0.09      0    109     66.1   0.19   0.00   1.07    2.20    2.09    2.00    0.92    0.51    0.31    0.26    0.11    0.03    0.00      0      0      0       0      57 15.69
 2022 202    82    73   20.0      3   0.38    592    547      0    396   1140   1272      0    0.0  0.000    132      0  0.000  0.000  0.601  0.000  0.000  0.000  0.000   0.75   0.00   0.10      0    132     64.5   0.19   0.00   1.08    2.20    2.09    2.00    0.92    0.51    0.31    0.26    0.11    0.03    0.00      0      0      0       0      59 18.78
 2022 203    83    74   20.0      4   0.37    583    596      0    397   1180   1318      0    0.0  0.000    138      0  0.000  0.000  0.595  0.000  0.000  0.000  0.000   0.75   0.00   0.10      0    138     62.8   0.19   0.00   1.10    2.20    2.08    2.00    0.92    0.51    0.31    0.26    0.11    0.03    0.00      0      0      0       0      61 19.02
 2022 204    84    75   20.0      4   0.35    573    637      0    397   1210   1354      0    0.0  0.000    144      0  0.000  0.000  0.584  0.000  0.000  0.000  0.000   0.75   0.00   0.11      0    144     61.2   0.19   0.00   1.11    2.19    2.08    2.00    0.92    0.51    0.31    0.27    0.11    0.03    0.00      0      0      0       0      63 21.40
 2022 205    85    76   20.0      4   0.34    563    678      0    397   1241   1391      0    0.0  0.000    150      0  0.000  0.000  0.581  0.000  0.000  0.000  0.000   0.76   0.00   0.11      0    150     59.8   0.19   0.00   1.12    2.19    2.08    2.00    0.92    0.51    0.31    0.27    0.11    0.03    0.00      0      0      0       0      65 15.00
 2022 206    86    77   20.0      4   0.32    552    687      0    395   1239   1390      0    0.0  0.000    152      0  0.000  0.000  0.575  0.000  0.000  0.000  0.000   0.78   0.00   0.11      0    152     58.6   0.19   0.00   1.13    2.18    2.07    1.99    0.92    0.51    0.31    0.27    0.11    0.03    0.00      0      0      0       0      67 12.10
 2022 207    87    78   20.0      4   0.31    540    711      0    395   1250   1407      0    0.0  0.000    156      0  0.000  0.000  0.570  0.000  0.000  0.000  0.000   0.79   0.00   0.11      0    156     57.4   0.19   0.00   1.14    2.17    2.06    1.98    0.91    0.51    0.31    0.27    0.11    0.03    0.00      0      0      0       0      69 14.65
 2022 208    88    79   20.0      4   0.30    527    736      0    394   1263   1425      0    0.0  0.000    161      0  0.000  0.000  0.552  0.000  0.000  0.000  0.000   0.79   0.00   0.11      0    161     56.5   0.19   0.00   1.15    2.17    2.06    1.98    0.91    0.51    0.31    0.27    0.11    0.03    0.00      0      0      0       0      71 13.20