*SOIL-PLANT-ATMOSPHERE MODULE OUTPUT FILE

*DSSAT Cropping System Model Ver. 4.8.2.000 -release  FEB 28, 2025 20:35:43

*RUN   1        : silt_loam_13in_irr        MZCER048 UNLI2201    1
 MODEL          : MZCER048 - Maize
 EXPERIMENT     : UNLI2201 MZ IRRIGATED MAIZE PRODUCTION
 DATA PATH      :
 TREATMENT  1   : silt_loam_13in_irr        MZCER048
  
!                                                                                                                                                                                        Soil evaporation (mm/d) by soil depth (cm):
!                                                                                                                                                                                        0-5    5-15   15-23   23-38   38-53   53-61   61-69   69-84   84-99  99-160
@YEAR DOY   DAS   SRAA  TMAXA  TMINA    REFA    EOAA    EOPA    EOSA    ETAA    EPAA    ESAA    EFAA    EMAA    EOAC    ETAC    EPAC    ESAC    EFAC    EMAC    KCAA    KBSA    KEAA    ES1D    ES2D    ES3D    ES4D    ES5D    ES6D    ES7D    ES8D    ES9D  ES10D   TRWUD   TWUPD
 2022 121     1  23.70  16.20   3.30 -99.000   4.768   0.000   4.768   0.931   0.000   0.931   0.000   0.000    4.77    0.93    0.00    0.93    0.00    0.00 -99.000 -99.000 -99.000   0.772   0.102   0.023   0.017   0.006   0.002   0.001   0.002   0.002   0.003   0.000   0.000
 2022 122     2   3.80   9.10   0.50 -99.000   0.658   0.000   0.658   0.658   0.000   0.658   0.000   0.000    5.43    1.59    0.00    1.59    0.00    0.00 -99.000 -99.000 -99.000   0.177   0.130   0.058   0.070   0.042   0.017   0.015   0.032   0.027   0.089   0.000   0.000
 2022 123     3  17.50  11.50  -2.30 -99.000   3.248   0.000   3.248   3.248   0.000   3.248   0.000   0.000    8.67    4.84    0.00    4.84    0.00    0.00 -99.000 -99.000 -99.000   0.918   0.652   0.286   0.335   0.200   0.081   0.074   0.153   0.130   0.420   0.000   0.000
 2022 124     4   3.60   8.10   4.60 -99.000   0.665   0.000   0.665   0.665   0.000   0.665   0.000   0.000    9.34    5.50    0.00    5.50    0.00    0.00 -99.000 -99.000 -99.000   0.189   0.127   0.061   0.070   0.042   0.017   0.015   0.032   0.027   0.087   0.000   0.000
 2022 125     5  11.10  13.80   6.30 -99.000   2.310   0.000   2.310   2.310   0.000   2.310   0.000   0.000   11.65    7.81    0.00    7.81    0.00    0.00 -99.000 -99.000 -99.000   0.661   0.421   0.218   0.250   0.148   0.060   0.053   0.110   0.092   0.297   0.000   0.000
 2022 126     6  24.40  26.90   2.80 -99.000   5.861   0.000   5.861   5.861   0.000   5.861   0.000   0.000   17.51   13.67    0.00   13.67    0.00    0.00 -99.000 -99.000 -99.000   1.495   1.043   0.550   0.672   0.404   0.165   0.147   0.306   0.255   0.825   0.000   0.000
 2022 127     7  21.80  27.30   8.40 -99.000   5.393   0.000   5.393   5.393   0.000   5.393   0.000   0.000   22.90   19.07    0.00   19.07    0.00    0.00 -99.000 -99.000 -99.000   1.545   0.922   0.482   0.590   0.355   0.146   0.130   0.269   0.224   0.728   0.000   0.000
 2022 128     8  22.40  24.60  11.50 -99.000   5.691   0.000   5.691   5.691   0.000   5.691   0.000   0.000   28.59   24.76    0.00   24.76    0.00    0.00 -99.000 -99.000 -99.000   1.591   0.953   0.495   0.631   0.383   0.157   0.141   0.294   0.247   0.800   0.000   0.000
 2022 129     9  26.00  23.00  10.30 -99.000   6.233   0.000   6.233   6.233   0.000   6.233   0.000   0.000   34.83   30.99    0.00   30.99    0.00    0.00 -99.000 -99.000 -99.000   1.832   1.169   0.549   0.646   0.387   0.158   0.141   0.294   0.249   0.807   0.000   0.000
 2022 130    10  27.30  24.30   7.30 -99.000   6.696   0.000   6.696   6.696   0.000   6.696   0.000   0.000   41.52   37.69    0.00   37.69    0.00    0.00 -99.000 -99.000 -99.000   2.008   1.428   0.674   0.659   0.380   0.155   0.135   0.276   0.231   0.751   0.000   0.000
 2022 131    11  22.30  32.40  12.80 -99.000   6.294   0.000   6.294   6.294   0.000   6.294   0.000   0.000   47.82   43.98    0.00   43.98    0.00    0.00 -99.000 -99.000 -99.000   1.763   1.362   0.697   0.701   0.381   0.156   0.127   0.246   0.203   0.657   0.000   0.000
 2022 132    12  18.50  30.80  12.30 -99.000   5.116   0.000   5.116   5.116   0.000   5.116   0.000   0.000   52.93   49.10    0.00   49.10    0.00    0.00 -99.000 -99.000 -99.000   1.379   1.059   0.548   0.653   0.350   0.148   0.113   0.198   0.161   0.508   0.000   0.000
 2022 133    13  24.00  24.20   6.30 -99.000   5.845   0.000   5.845   5.845   0.000   5.845   0.000   0.000   58.78   54.94    0.00   54.94    0.00    0.00 -99.000 -99.000 -99.000   1.526   1.164   0.601   0.795   0.443   0.200   0.147   0.230   0.183   0.557   0.000   0.000
 2022 134    14  23.00  22.90   7.90 -99.000   5.580   0.000   5.580   5.580   0.000   5.580   0.000   0.000   64.36   60.52    0.00   60.52    0.00    0.00 -99.000 -99.000 -99.000   1.405   1.074   0.555   0.771   0.459   0.223   0.163   0.229   0.179   0.522   0.000   0.000
 2022 135    15  26.60  22.90   9.20 -99.000   6.531   0.000   6.531   6.531   0.000   6.531   0.000   0.000   70.89   67.05    0.00   67.05    0.00    0.00 -99.000 -99.000 -99.000   1.600   1.221   0.630   0.885   0.574   0.274   0.226   0.291   0.221   0.610   0.000   0.000
 2022 136    16  26.40  29.10   7.40 -99.000   6.892   0.000   6.892   6.892   0.000   6.892   0.000   0.000   77.78   73.94    0.00   73.94    0.00    0.00 -99.000 -99.000 -99.000   1.465   1.186   0.696   0.902   0.651   0.313   0.286   0.378   0.281   0.733   0.000   0.000
 2022 137    17  23.00  28.60  15.30 -99.000   6.189   0.000   6.189   6.189   0.000   6.189   0.000   0.000   83.97   80.13    0.00   80.13    0.00    0.00 -99.000 -99.000 -99.000   1.248   1.056   0.605   0.800   0.554   0.258   0.235   0.367   0.283   0.784   0.000   0.000
 2022 138    18  27.10  29.60  10.40 -99.000   6.975   0.018   6.957   6.576   0.018   6.558   0.000   0.000   90.94   86.71    0.02   86.69    0.00    0.00 -99.000 -99.000 -99.000   1.286   1.118   0.628   0.844   0.564   0.252   0.231   0.395   0.314   0.927   0.002   0.109
 2022 139    19  21.40  31.40   8.80 -99.000   5.492   0.026   5.467   5.492   0.026   5.467   0.000   0.000   96.44   92.20    0.04   92.16    0.00    0.00 -99.000 -99.000 -99.000   1.019   0.937   0.519   0.706   0.459   0.199   0.182   0.335   0.273   0.838   0.003   0.113
 2022 140    20   8.10  11.90   6.80 -99.000   1.562   0.011   1.551   1.562   0.011   1.551   0.000   0.000   98.00   93.76    0.05   93.71    0.00    0.00 -99.000 -99.000 -99.000   0.270   0.270   0.147   0.202   0.129   0.055   0.050   0.097   0.080   0.252   0.001   0.119
 2022 141    21  14.20  13.80  -0.60 -99.000   2.605   0.019   2.586   2.604   0.019   2.586   0.000   0.000  100.60   96.37    0.07   96.29    0.00    0.00 -99.000 -99.000 -99.000   0.443   0.456   0.245   0.336   0.211   0.088   0.080   0.161   0.135   0.430   0.002   0.119
 2022 142    22  19.60  17.40  -3.30 -99.000   3.691   0.015   3.675   3.691   0.015   3.675   0.000   0.000  104.29  100.06    0.09   99.97    0.00    0.00 -99.000 -99.000 -99.000   0.604   0.648   0.352   0.481   0.299   0.124   0.113   0.232   0.196   0.626   0.002   0.121
 2022 143    23   4.20  12.30   7.10 -99.000   0.811   0.001   0.810   0.811   0.001   0.810   0.000   0.000  105.10  100.87    0.09  100.78    0.00    0.00 -99.000 -99.000 -99.000   0.188   0.135   0.071   0.097   0.060   0.024   0.023   0.047   0.040   0.127   0.000   0.124
 2022 144    24   8.60  13.00   6.60 -99.000   1.757   0.002   1.755   1.757   0.002   1.755   0.000   0.000  106.86  102.62    0.09  102.53    0.00    0.00 -99.000 -99.000 -99.000   0.505   0.287   0.144   0.191   0.118   0.048   0.044   0.092   0.078   0.249   0.000   0.123
 2022 145    25  26.50  19.00   7.70 -99.000   5.939   0.007   5.932   5.939   0.007   5.932   0.000   0.000  112.80  108.56    0.10  108.47    0.00    0.00 -99.000 -99.000 -99.000   1.512   1.000   0.509   0.679   0.416   0.171   0.155   0.328   0.277   0.885   0.001   0.122
 2022 146    26  28.80  27.30   3.70 -99.000   6.816   0.017   6.799   5.664   0.017   5.647   0.000   0.000  119.62  114.23    0.11  114.11    0.00    0.00 -99.000 -99.000 -99.000   1.276   0.961   0.500   0.675   0.414   0.170   0.155   0.328   0.277   0.891   0.002   0.124
 2022 147    27  27.00  32.90   6.80 -99.000   6.941   0.030   6.911   0.887   0.030   0.857   0.000   0.000  126.56  115.11    0.14  114.97    0.00    0.00 -99.000 -99.000 -99.000   0.705   0.097   0.022   0.017   0.006   0.002   0.001   0.002   0.002   0.003   0.003   0.128
 2022 148    28  23.90  31.00  11.00 -99.000   6.176   0.046   6.130   0.839   0.046   0.793   0.000   0.000  132.73  115.95    0.19  115.76    0.00    0.00 -99.000 -99.000 -99.000   0.642   0.096   0.022   0.017   0.006   0.002   0.001   0.002   0.002   0.003   0.005   0.134
 2022 149    29  21.10  28.30  15.00 -99.000   5.418   0.097   5.320   0.832   0.097   0.735   0.000   0.000  138.15  116.79    0.29  116.50    0.00    0.00 -99.000 -99.000 -99.000   0.584   0.096   0.022   0.017   0.006   0.002   0.001   0.002   0.002   0.003   0.010   0.145
 2022 150    30  16.50  18.60  10.60 -99.000   3.598   0.106   3.491   1.003   0.106   0.897   0.000   0.000  141.75  117.79    0.39  117.40    0.00    0.00 -99.000 -99.000 -99.000   0.744   0.098   0.022   0.017   0.006   0.002   0.001   0.002   0.002   0.003   0.011   0.170
 2022 151    31  15.50  20.40   8.40 -99.000   3.482   0.123   3.359   3.481   0.123   3.359   0.000   0.000  145.23  121.27    0.52  120.75    0.00    0.00 -99.000 -99.000 -99.000   0.786   0.570   0.289   0.395   0.243   0.100   0.091   0.193   0.164   0.528   0.012   0.193
 2022 152    32  20.60  20.00   8.60 -99.000   4.567   0.189   4.377   1.111   0.189   0.922   0.000   0.000  149.80  122.38    0.70  121.68    0.00    0.00 -99.000 -99.000 -99.000   0.769   0.099   0.022   0.016   0.006   0.002   0.001   0.002   0.002   0.003   0.019   0.219
 2022 153    33  23.50  24.20   5.00 -99.000   5.301   0.254   5.046   1.099   0.254   0.846   0.000   0.000  155.10  123.48    0.96  122.52    0.00    0.00 -99.000 -99.000 -99.000   0.694   0.098   0.022   0.016   0.006   0.002   0.001   0.002   0.002   0.003   0.025   0.265
 2022 154    34  24.50  25.90   7.70 -99.000   5.745   0.318   5.425   1.092   0.318   0.773   0.000   0.000  160.84  124.57    1.28  123.30    0.00    0.00 -99.000 -99.000 -99.000   0.622   0.097   0.022   0.016   0.006   0.002   0.001   0.002   0.002   0.003   0.032   0.325
 2022 155    35  25.90  30.40  11.20 -99.000   6.553   0.434   6.117   1.138   0.434   0.704   0.000   0.000  167.40  125.71    1.71  124.00    0.00    0.00 -99.000 -99.000 -99.000   0.554   0.096   0.022   0.016   0.006   0.002   0.001   0.002   0.002   0.003   0.043   0.396
 2022 156    36  19.80  29.30  12.60 -99.000   4.965   0.411   4.552   1.048   0.411   0.637   0.000   0.000  172.36  126.76    2.12  124.64    0.00    0.00 -99.000 -99.000 -99.000   0.489   0.094   0.022   0.016   0.006   0.002   0.001   0.002   0.002   0.003   0.041   0.477
 2022 157    37  27.20  29.20  14.10 -99.000   6.847   0.681   6.163   1.303   0.681   0.622   0.000   0.000  179.21  128.06    2.80  125.26    0.00    0.00 -99.000 -99.000 -99.000   0.475   0.093   0.022   0.016   0.006   0.002   0.001   0.002   0.002   0.003   0.068   0.438
 2022 158    38   9.40  23.50  11.40 -99.000   2.161   0.256   1.904   2.160   0.256   1.904   0.000   0.000  181.37  130.22    3.06  127.16    0.00    0.00 -99.000 -99.000 -99.000   0.460   0.316   0.159   0.220   0.137   0.057   0.052   0.110   0.093   0.300   0.026   0.679
 2022 159    39  29.80  24.90  11.00 -99.000   7.287   0.948   6.333   6.856   0.948   5.908   0.000   0.000  188.66  137.08    4.01  133.07    0.00    0.00 -99.000 -99.000 -99.000   1.617   0.975   0.483   0.651   0.399   0.165   0.150   0.320   0.271   0.876   0.095   0.715
 2022 160    40  17.90  26.70  15.10 -99.000   4.509   0.653   3.853   4.506   0.653   3.853   0.000   0.000  193.17  141.58    4.66  136.92    0.00    0.00 -99.000 -99.000 -99.000   0.925   0.643   0.333   0.450   0.273   0.113   0.103   0.220   0.187   0.606   0.065   0.906
 2022 161    41  26.20  29.60  13.10 -99.000   6.656   1.055   5.596   1.954   1.055   0.899   0.000   0.000  199.82  143.54    5.71  137.82    0.00    0.00 -99.000 -99.000 -99.000   0.752   0.095   0.021   0.016   0.005   0.002   0.001   0.002   0.002   0.003   0.105   1.038
 2022 162    42  27.30  32.70  19.40 -99.000   7.460   1.285   6.169   2.091   1.285   0.805   0.000   0.000  207.28  145.63    7.00  138.63    0.00    0.00 -99.000 -99.000 -99.000   0.661   0.092   0.021   0.016   0.005   0.002   0.001   0.002   0.002   0.003   0.129   1.225
 2022 163    43  26.90  34.60  18.80 -99.000   7.403   1.429   5.968   2.144   1.429   0.715   0.000   0.000  214.69  147.77    8.43  139.34    0.00    0.00 -99.000 -99.000 -99.000   0.574   0.089   0.020   0.016   0.005   0.002   0.001   0.002   0.002   0.003   0.143   1.421
 2022 164    44  27.40  41.20  21.10 -99.000  10.406   2.221   8.176   2.852   2.221   0.631   0.000   0.000  225.09  150.62   10.65  139.97    0.00    0.00 -99.000 -99.000 -99.000   0.494   0.086   0.020   0.015   0.005   0.002   0.001   0.002   0.002   0.003   0.222   1.629
 2022 165    45  27.30  30.00  18.10 -99.000   7.000   1.635   5.357   2.173   1.635   0.538   0.000   0.000  232.09  152.80   12.28  140.51    0.00    0.00 -99.000 -99.000 -99.000   0.407   0.082   0.019   0.015   0.005   0.002   0.001   0.002   0.002   0.003   0.163   1.538
 2022 166    46  29.00  30.60  14.00 -99.000   7.228   1.774   5.445   2.262   1.774   0.487   0.000   0.000  239.32  155.06   14.06  141.00    0.00    0.00 -99.000 -99.000 -99.000   0.360   0.078   0.018   0.015   0.005   0.002   0.001   0.002   0.002   0.003   0.177   1.667
 2022 167    47  28.90  31.60  11.20 -99.000   7.109   1.812   5.287   2.259   1.812   0.446   0.000   0.000  246.43  157.32   15.87  141.45    0.00    0.00 -99.000 -99.000 -99.000   0.325   0.074   0.017   0.015   0.005   0.002   0.001   0.002   0.002   0.003   0.181   1.856
 2022 168    48  27.80  38.90  19.80 -99.000   9.226   2.417   6.799   2.828   2.417   0.411   0.000   0.000  255.65  160.14   18.29  141.86    0.00    0.00 -99.000 -99.000 -99.000   0.294   0.070   0.017   0.014   0.005   0.002   0.001   0.002   0.002   0.003   0.242   2.067
 2022 169    49  28.20  37.20  24.40 -99.000   8.830   2.464   6.357   2.833   2.456   0.377   0.000   0.000  264.49  162.98   20.74  142.23    0.00    0.00 -99.000 -99.000 -99.000   0.267   0.064   0.016   0.014   0.005   0.002   0.001   0.002   0.002   0.003   0.246   2.249
 2022 170    50  26.40  36.60  24.50 -99.000   7.989   2.382   5.598   2.729   2.382   0.347   0.000   0.000  272.47  165.71   23.13  142.58    0.00    0.00 -99.000 -99.000 -99.000   0.244   0.059   0.014   0.014   0.005   0.002   0.001   0.002   0.002   0.003   0.238   2.465
 2022 171    51  21.80  36.60  23.00 -99.000   6.510   2.054   4.447   2.373   2.054   0.319   0.000   0.000  278.98  168.08   25.18  142.90    0.00    0.00 -99.000 -99.000 -99.000   0.223   0.054   0.013   0.013   0.005   0.002   0.001   0.002   0.002   0.003   0.205   2.567
 2022 172    52  16.70  27.20  12.00 -99.000   3.863   1.266   2.589   1.560   1.266   0.294   0.000   0.000  282.85  169.64   26.45  143.19    0.00    0.00 -99.000 -99.000 -99.000   0.203   0.050   0.013   0.013   0.005   0.002   0.001   0.002   0.002   0.003   0.127   2.245
 2022 173    53  23.10  30.80   9.10 -99.000   5.444   1.791   3.643   2.064   1.791   0.274   0.000   0.000  288.29  171.70   28.24  143.47    0.00    0.00 -99.000 -99.000 -99.000   0.185   0.049   0.012   0.013   0.005   0.002   0.001   0.002   0.002   0.003   0.179   2.217
 2022 174    54  28.80  35.40  18.20 -99.000   7.766   2.575   5.180   2.829   2.575   0.254   0.000   0.000  296.06  174.53   30.81  143.72    0.00    0.00 -99.000 -99.000 -99.000   0.169   0.047   0.011   0.012   0.005   0.002   0.001   0.002   0.002   0.003   0.258   1.827
 2022 175    55  23.10  31.90  19.40 -99.000   5.934   2.025   3.899   2.274   2.025   0.249   0.000   0.000  301.99  176.81   32.84  143.97    0.00    0.00 -99.000 -99.000 -99.000   0.167   0.045   0.010   0.012   0.005   0.002   0.001   0.002   0.002   0.003   0.203   1.696
 2022 176    56  22.80  24.90  15.30 -99.000   5.243   1.833   3.399   2.078   1.833   0.245   0.000   0.000  307.23  178.89   34.67  144.21    0.00    0.00 -99.000 -99.000 -99.000   0.166   0.043   0.010   0.011   0.005   0.002   0.001   0.002   0.002   0.003   0.183   1.692
 2022 177    57  21.10  24.40   7.80 -99.000   4.528   1.588   2.930   1.816   1.588   0.228   0.000   0.000  311.76  180.70   36.26  144.44    0.00    0.00 -99.000 -99.000 -99.000   0.151   0.042   0.009   0.011   0.005   0.002   0.001   0.002   0.002   0.003   0.159   1.741
 2022 178    58  28.70  29.30  13.40 -99.000   6.839   2.377   4.449   2.590   2.377   0.213   0.000   0.000  318.60  183.29   38.64  144.66    0.00    0.00 -99.000 -99.000 -99.000   0.138   0.041   0.009   0.010   0.005   0.002   0.001   0.002   0.002   0.003   0.238   1.799
 2022 179    59  26.10  35.00  12.80 -99.000   6.595   2.303   4.281   2.502   2.303   0.199   0.000   0.000  325.19  185.79   40.94  144.85    0.00    0.00 -99.000 -99.000 -99.000   0.126   0.040   0.009   0.009   0.004   0.002   0.001   0.002   0.002   0.003   0.230   1.879
 2022 180    60  24.30  38.10  19.80 -99.000   7.590   2.685   4.893   2.871   2.685   0.186   0.000   0.000  332.78  188.66   43.62  145.04    0.00    0.00 -99.000 -99.000 -99.000   0.115   0.039   0.009   0.009   0.004   0.002   0.001   0.002   0.002   0.003   0.269   1.949
 2022 181    61  20.00  34.10  19.90 -99.000   5.251   1.901   3.342   2.075   1.901   0.174   0.000   0.000  338.04  190.74   45.52  145.21    0.00    0.00 -99.000 -99.000 -99.000   0.105   0.039   0.009   0.008   0.004   0.001   0.001   0.002   0.002   0.003   0.190   1.880
 2022 182    62  21.10  30.70  17.70 -99.000   5.252   1.934   3.308   2.098   1.934   0.163   0.000   0.000  343.29  192.84   47.46  145.38    0.00    0.00 -99.000 -99.000 -99.000   0.096   0.038   0.009   0.007   0.004   0.001   0.001   0.002   0.002   0.003   0.193   1.477
 2022 183    63  23.20  28.40  15.90 -99.000   5.548   2.057   3.480   5.537   2.057   3.480   0.000   0.000  348.84  198.37   49.52  148.86    0.00    0.00 -99.000 -99.000 -99.000   1.058   0.465   0.146   0.223   0.209   0.111   0.110   0.250   0.214   0.694   0.206   1.336
 2022 184    64  24.00  34.50  20.60 -99.000   6.793   2.520   4.262   6.782   2.520   4.262   0.000   0.000  355.63  205.16   52.04  153.12    0.00    0.00 -99.000 -99.000 -99.000   1.801   0.686   0.146   0.193   0.179   0.099   0.098   0.228   0.196   0.637   0.252   2.894
 2022 185    65  25.80  37.00  19.40 -99.000   8.058   3.034   5.011   8.045   3.034   5.011   0.000   0.000  363.69  213.20   55.07  158.13    0.00    0.00 -99.000 -99.000 -99.000   1.736   0.939   0.254   0.243   0.220   0.125   0.125   0.293   0.253   0.823   0.303   3.045
 2022 186    66  24.40  36.90  19.90 -99.000   7.441   2.847   4.582   7.429   2.847   4.582   0.000   0.000  371.13  220.63   57.92  162.71    0.00    0.00 -99.000 -99.000 -99.000   1.596   0.962   0.331   0.199   0.170   0.100   0.101   0.239   0.207   0.676   0.285   3.658
 2022 187    67  14.10  28.80  18.80 -99.000   3.678   1.427   2.243   3.670   1.427   2.243   0.000   0.000  374.81  224.30   59.34  164.96    0.00    0.00 -99.000 -99.000 -99.000   0.741   0.507   0.204   0.101   0.076   0.045   0.046   0.111   0.096   0.315   0.143   3.569
 2022 188    68  20.90  27.70  20.40 -99.000   5.387   2.100   3.277   5.376   2.100   3.277   0.000   0.000  380.19  229.68   61.44  168.23    0.00    0.00 -99.000 -99.000 -99.000   1.135   0.696   0.320   0.169   0.104   0.062   0.064   0.154   0.134   0.438   0.210   3.854
 2022 189    69  27.30  31.70  18.70 -99.000   7.348   2.919   4.415   7.334   2.919   4.415   0.000   0.000  387.54  237.01   64.36  172.65    0.00    0.00 -99.000 -99.000 -99.000   1.410   0.878   0.433   0.328   0.147   0.088   0.091   0.220   0.192   0.629   0.292   4.457
 2022 190    70  27.10  36.40  19.60 -99.000   8.035   3.240   4.780   8.021   3.240   4.780   0.000   0.000  395.57  245.03   67.60  177.43    0.00    0.00 -99.000 -99.000 -99.000   1.309   0.925   0.470   0.470   0.170   0.102   0.105   0.259   0.226   0.743   0.324   4.440
 2022 191    71  27.40  37.80  22.30 -99.000   8.784   3.571   5.199   8.566   3.571   4.995   0.000   0.000  404.36  253.60   71.17  182.42    0.00    0.00 -99.000 -99.000 -99.000   1.284   0.949   0.483   0.521   0.183   0.109   0.114   0.283   0.249   0.819   0.357   4.422
 2022 192    72  27.80  27.70  15.10 -99.000   6.717   2.734   3.968   3.595   2.734   0.861   0.000   0.000  411.08  257.19   73.91  183.28    0.00    0.00 -99.000 -99.000 -99.000   0.725   0.092   0.020   0.012   0.003   0.001   0.001   0.002   0.001   0.003   0.273   4.412
 2022 193    73  26.80  30.50  12.60 -99.000   6.546   2.631   3.901   3.406   2.631   0.775   0.000   0.000  417.62  260.60   76.54  184.06    0.00    0.00 -99.000 -99.000 -99.000   0.645   0.087   0.020   0.012   0.003   0.001   0.001   0.002   0.001   0.003   0.263   4.484
 2022 194    74  25.00  36.10  17.90 -99.000   7.062   2.800   4.249   3.497   2.800   0.697   0.000   0.000  424.68  264.10   79.34  184.76    0.00    0.00 -99.000 -99.000 -99.000   0.573   0.083   0.019   0.011   0.002   0.001   0.001   0.002   0.001   0.003   0.280   4.549
 2022 195    75  29.30  38.90  22.10 -99.000   9.798   3.856   5.927   4.479   3.856   0.623   0.000   0.000  434.48  268.57   83.20  185.38    0.00    0.00 -99.000 -99.000 -99.000   0.505   0.078   0.018   0.011   0.002   0.001   0.001   0.002   0.001   0.003   0.386   4.570
 2022 196    76  27.20  34.70  17.50 -99.000   7.148   2.799   4.336   3.327   2.799   0.528   0.000   0.000  441.63  271.90   85.99  185.91    0.00    0.00 -99.000 -99.000 -99.000   0.418   0.072   0.016   0.010   0.002   0.001   0.001   0.002   0.001   0.003   0.280   4.249
 2022 197    77  20.10  34.50  19.70 -99.000   5.343   2.074   3.260   2.545   2.074   0.472   0.000   0.000  446.97  274.45   88.07  186.38    0.00    0.00 -99.000 -99.000 -99.000   0.368   0.068   0.015   0.010   0.002   0.001   0.001   0.002   0.001   0.003   0.207   4.122
 2022 198    78  27.40  34.10  17.00 -99.000   7.108   2.728   4.368   3.160   2.728   0.431   0.000   0.000  454.08  277.61   90.80  186.81    0.00    0.00 -99.000 -99.000 -99.000   0.333   0.064   0.015   0.009   0.002   0.001   0.001   0.002   0.001   0.003   0.273   4.073
 2022 199    79  28.30  38.90  19.40 -99.000   9.225   3.503   5.707   3.897   3.503   0.394   0.000   0.000  463.31  281.50   94.30  187.20    0.00    0.00 -99.000 -99.000 -99.000   0.301   0.059   0.014   0.009   0.002   0.001   0.001   0.002   0.001   0.003   0.350   4.085
 2022 200    80  29.20  34.60  15.30 -99.000   7.510   2.828   4.668   3.186   2.828   0.358   0.000   0.000  470.82  284.69   97.13  187.56    0.00    0.00 -99.000 -99.000 -99.000   0.274   0.053   0.012   0.008   0.002   0.001   0.001   0.002   0.001   0.003   0.283   3.790
 2022 201    81  28.10  34.20  13.20 -99.000   7.083   2.638   4.432   2.961   2.633   0.328   0.000   0.000  477.90  287.65   99.76  187.89    0.00    0.00 -99.000 -99.000 -99.000   0.249   0.049   0.011   0.008   0.002   0.001   0.001   0.002   0.001   0.003   0.263   2.783
 2022 202    82  25.50  38.00  17.10 -99.000   7.812   2.876   4.923   6.856   2.876   3.980   0.000   0.000  485.71  294.51  102.64  191.87    0.00    0.00 -99.000 -99.000 -99.000   1.266   0.540   0.224   0.287   0.164   0.084   0.094   0.267   0.242   0.811   0.288   1.742
 2022 203    83  27.40  34.80  19.40 -99.000   7.645   2.796   4.836   7.222   2.796   4.426   0.000   0.000  493.35  301.73  105.43  196.30    0.00    0.00 -99.000 -99.000 -99.000   1.684   0.653   0.201   0.260   0.159   0.079   0.088   0.260   0.238   0.804   0.280   2.754
 2022 204    84  23.60  36.20  23.40 -99.000   7.113   2.523   4.579   6.496   2.523   3.973   0.000   0.000  500.47  308.23  107.96  200.27    0.00    0.00 -99.000 -99.000 -99.000   1.304   0.629   0.190   0.248   0.155   0.077   0.084   0.255   0.234   0.797   0.252   2.618
 2022 205    85  24.80  28.80  17.20 -99.000   6.218   2.137   4.070   2.890   2.137   0.753   0.000   0.000  506.69  311.12  110.09  201.02    0.00    0.00 -99.000 -99.000 -99.000   0.670   0.058   0.008   0.006   0.002   0.001   0.001   0.002   0.001   0.003   0.214   2.490
 2022 206    86   5.60  22.10  18.10 -99.000   1.303   0.434   0.866   1.265   0.434   0.831   0.000   0.000  507.99  312.38  110.53  201.85    0.00    0.00 -99.000 -99.000 -99.000   0.752   0.055   0.008   0.006   0.002   0.001   0.001   0.002   0.001   0.003   0.043   2.062
 2022 207    87  15.30  27.40  17.90 -99.000   3.846   1.242   2.598   3.840   1.242   2.598   0.000   0.000  511.83  316.22  111.77  204.45    0.00    0.00 -99.000 -99.000 -99.000   0.877   0.372   0.122   0.160   0.102   0.050   0.053   0.169   0.156   0.537   0.124   2.426
 2022 208    88  16.60  28.80  13.60 -99.000   4.081   1.277   2.797   4.074   1.277   2.797   0.000   0.000  515.92  320.29  113.05  207.25    0.00    0.00 -99.000 -99.000 -99.000   1.095   0.496   0.128   0.139   0.089   0.044   0.047   0.148   0.137   0.475   0.128   2.234
 2022 209    89  18.40  24.40  15.60 -99.000   4.544   1.378   3.158   4.536   1.378   3.158   0.000   0.000  520.46  324.83  114.42  210.41    0.00    0.00 -99.000 -99.000 -99.000   1.202   0.685   0.173   0.140   0.091   0.045   0.047   0.150   0.140   0.486   0.138   2.872
 2022 210    90  15.40  25.90  16.40 -99.000   3.830   1.126   2.698   3.824   1.126   2.698   0.000   0.000  524.29  328.65  115.55  213.10    0.00    0.00 -99.000 -99.000 -99.000   0.887   0.595   0.195   0.129   0.084   0.041   0.043   0.139   0.130   0.454   0.113   3.204
 2022 211    91  27.20  28.70  15.30 -99.000   6.855   1.955   4.890   6.318   1.955   4.363   0.000   0.000  531.14  334.97  117.50  217.47    0.00    0.00 -99.000 -99.000 -99.000   1.303   0.966   0.362   0.217   0.142   0.070   0.073   0.236   0.221   0.772   0.195   3.176
 2022 212    92  21.80  33.20  17.70 -99.000   5.827   1.612   4.207   2.424   1.612   0.812   0.000   0.000  536.97  337.40  119.12  218.28    0.00    0.00 -99.000 -99.000 -99.000   0.688   0.093   0.016   0.005   0.002   0.001   0.001   0.002   0.001   0.003   0.161   3.145
 2022 213    93  25.60  37.30  15.00 -99.000   7.717   2.072   5.636   2.792   2.072   0.720   0.000   0.000  544.69  340.19  121.19  219.00    0.00    0.00 -99.000 -99.000 -99.000   0.601   0.090   0.015   0.005   0.002   0.001   0.001   0.002   0.001   0.003   0.207   3.135
 2022 214    94  24.00  38.90  19.30 -99.000   8.041   2.095   5.937   2.789   2.095   0.694   0.000   0.000  552.73  342.98  123.28  219.69    0.00    0.00 -99.000 -99.000 -99.000   0.580   0.085   0.014   0.005   0.002   0.001   0.001   0.002   0.001   0.003   0.210   3.126
 2022 215    95  25.50  33.20  18.40 -99.000   6.827   1.725   5.093   2.394   1.725   0.668   0.000   0.000  559.56  345.37  125.01  220.36    0.00    0.00 -99.000 -99.000 -99.000   0.561   0.080   0.013   0.005   0.002   0.001   0.001   0.002   0.001   0.003   0.173   3.120
 2022 216    96  25.50  34.60  16.20 -99.000   6.799   1.666   5.125   2.252   1.666   0.586   0.000   0.000  566.36  347.62  126.68  220.95    0.00    0.00 -99.000 -99.000 -99.000   0.483   0.076   0.012   0.005   0.002   0.001   0.001   0.002   0.001   0.003   0.167   3.149
 2022 217    97  25.10  37.50  22.10 -99.000   7.972   1.896   6.068   2.407   1.896   0.511   0.000   0.000  574.33  350.03  128.57  221.46    0.00    0.00 -99.000 -99.000 -99.000   0.414   0.072   0.011   0.005   0.002   0.001   0.001   0.002   0.001   0.003   0.190   2.502
 2022 218    98  21.70  30.30  21.50 -99.000   5.710   1.317   4.387   1.771   1.317   0.455   0.000   0.000  580.04  351.80  129.89  221.91    0.00    0.00 -99.000 -99.000 -99.000   0.363   0.067   0.011   0.005   0.002   0.001   0.001   0.002   0.001   0.003   0.132   2.063
 2022 219    99   7.20  22.30  14.20 -99.000   1.630   0.364   1.264   0.813   0.364   0.449   0.000   0.000  581.67  352.61  130.25  222.36    0.00    0.00 -99.000 -99.000 -99.000   0.362   0.062   0.010   0.005   0.002   0.001   0.001   0.002   0.001   0.003   0.036   1.939
 2022 220   100  26.10  30.70   8.50 -99.000   6.269   1.361   4.901   1.811   1.361   0.450   0.000   0.000  587.94  354.43  131.61  222.81    0.00    0.00 -99.000 -99.000 -99.000   0.365   0.061   0.010   0.005   0.002   0.001   0.001   0.002   0.001   0.003   0.136   1.961
 2022 221   101  25.50  34.70  16.50 -99.000   6.791   1.433   5.351   1.841   1.433   0.408   0.000   0.000  594.73  356.27  133.05  223.22    0.00    0.00 -99.000 -99.000 -99.000   0.329   0.056   0.010   0.005   0.002   0.001   0.001   0.002   0.001   0.003   0.143   1.879
 2022 222   102  25.70  36.20  15.80 -99.000   7.288   1.494   5.788   1.865   1.494   0.372   0.000   0.000  602.02  358.13  134.54  223.59    0.00    0.00 -99.000 -99.000 -99.000   0.298   0.050   0.010   0.005   0.002   0.001   0.001   0.002   0.001   0.003   0.149   1.186
 2022 223   103  24.80  36.00  15.30 -99.000   6.927   1.379   5.541   1.715   1.376   0.339   0.000   0.000  608.94  359.85  135.91  223.93    0.00    0.00 -99.000 -99.000 -99.000   0.270   0.046   0.009   0.005   0.002   0.001   0.001   0.002   0.001   0.003   0.138   0.854