*Soil Organic Matter daily output file

*DSSAT Cropping System Model Ver. 4.8.2.000 -release  FEB 28, 2025 20:35:43

*RUN   1        : silt_loam_13in_irr        MZCER048 UNLI2201    1
 MODEL          : MZCER048 - Maize
 EXPERIMENT     : UNLI2201 MZ IRRIGATED MAIZE PRODUCTION
 DATA PATH      :
 TREATMENT  1   : silt_loam_13in_irr        MZCER048
  
@YEAR DOY   DAS    OMAC    SCDD    SOCD    SC0D    SCTD   SOMCT    LCTD    ONAC    SNDD    SOND    SN0D    SNTD   SOMNT    LNTD
 2022 120     0       0   14312  148718       0  148718  148718     0.0    0.00  1431.2 14871.8    0.00 14871.8 14871.8    0.00
 2022 121     1       0   14312  148717       0  148717  148717     0.0    0.00  1431.2 14871.7    0.00 14871.7 14871.7    0.00
 2022 122     2       0   14312  148716       0  148716  148716     0.0    0.00  1431.2 14871.6    0.00 14871.6 14871.6    0.00
 2022 123     3       0   14312  148715       0  148715  148715     0.0    0.00  1431.2 14871.5    0.00 14871.5 14871.5    0.00
 2022 124     4       0   14312  148714       0  148714  148714     0.0    0.00  1431.2 14871.4    0.00 14871.4 14871.4    0.00
 2022 125     5       0   14311  148714       0  148714  148714     0.0    0.00  1431.1 14871.4    0.00 14871.4 14871.4    0.00
 2022 126     6       0   14311  148714       0  148714  148714     0.0    0.00  1431.1 14871.4    0.00 14871.4 14871.4    0.00
 2022 127     7       0   14311  148713       0  148713  148713     0.0    0.00  1431.1 14871.3    0.00 14871.3 14871.3    0.00
 2022 128     8       0   14311  148712       0  148712  148712     0.0    0.00  1431.1 14871.2    0.00 14871.2 14871.2    0.00
 2022 129     9       0   14311  148710       0  148710  148710     0.0    0.00  1431.1 14871.0    0.00 14871.0 14871.0    0.00
 2022 130    10       0   14310  148707       0  148707  148707     0.0    0.00  1431.0 14870.7    0.00 14870.7 14870.7    0.00
 2022 131    11       0   14310  148703       0  148703  148703     0.0    0.00  1431.0 14870.3    0.00 14870.3 14870.3    0.00
 2022 132    12       0   14309  148700       0  148700  148700     0.0    0.00  1430.9 14870.0    0.00 14870.0 14870.0    0.00
 2022 133    13       0   14309  148695       0  148695  148695     0.0    0.00  1430.9 14869.6    0.00 14869.6 14869.6    0.00
 2022 134    14       0   14308  148692       0  148692  148692     0.0    0.00  1430.8 14869.2    0.00 14869.2 14869.2    0.00
 2022 135    15       0   14308  148688       0  148688  148688     0.0    0.00  1430.8 14868.8    0.00 14868.8 14868.8    0.00
 2022 136    16       0   14307  148684       0  148684  148684     0.0    0.00  1430.7 14868.4    0.00 14868.4 14868.4    0.00
 2022 137    17       0   14307  148680       0  148680  148680     0.0    0.00  1430.7 14868.0    0.00 14868.0 14868.0    0.00
 2022 138    18       0   14306  148677       0  148677  148677     0.0    0.00  1430.6 14867.7    0.00 14867.7 14867.7    0.00
 2022 139    19       0   14306  148673       0  148673  148673     0.0    0.00  1430.6 14867.3    0.00 14867.3 14867.3    0.00
 2022 140    20       0   14305  148668       0  148668  148668     0.0    0.00  1430.5 14866.8    0.00 14866.8 14866.8    0.00
 2022 141    21       0   14305  148665       0  148665  148665     0.0    0.00  1430.5 14866.5    0.00 14866.5 14866.5    0.00
 2022 142    22       0   14304  148662       0  148662  148662     0.0    0.00  1430.4 14866.2    0.00 14866.2 14866.2    0.00
 2022 143    23       0   14304  148660       0  148660  148660     0.0    0.00  1430.4 14866.0    0.00 14866.0 14866.0    0.00
 2022 144    24       0   14304  148658       0  148658  148658     0.0    0.00  1430.4 14865.8    0.00 14865.8 14865.8    0.00
 2022 145    25       0   14304  148657       0  148657  148657     0.0    0.00  1430.4 14865.7    0.00 14865.7 14865.7    0.00
 2022 146    26       0   14304  148656       0  148656  148656     0.0    0.00  1430.4 14865.6    0.00 14865.6 14865.6    0.00
 2022 147    27       0   14303  148655       0  148655  148655     0.0    0.00  1430.3 14865.5    0.00 14865.5 14865.5    0.00
 2022 148    28       0   14303  148652       0  148652  148652     0.0    0.00  1430.3 14865.2    0.00 14865.2 14865.2    0.00
 2022 149    29       0   14303  148649       0  148649  148649     0.0    0.00  1430.3 14864.9    0.00 14864.9 14864.9    0.00
 2022 150    30       0   14302  148645       0  148645  148645     0.0    0.00  1430.2 14864.5    0.00 14864.5 14864.5    0.00
 2022 151    31       0   14302  148641       0  148641  148641     0.0    0.00  1430.2 14864.1    0.00 14864.1 14864.1    0.00
 2022 152    32       0   14301  148637       0  148637  148637     0.1    0.00  1430.1 14863.7    0.00 14863.7 14863.7    0.00
 2022 153    33       0   14301  148634       0  148634  148634     0.1    0.00  1430.1 14863.4    0.00 14863.4 14863.4    0.00
 2022 154    34       0   14300  148631       0  148631  148630     0.2    0.00  1430.0 14863.0    0.00 14863.0 14863.0    0.01
 2022 155    35       0   14300  148628       0  148628  148627     0.3    0.00  1430.0 14862.8    0.00 14862.8 14862.7    0.01
 2022 156    36       0   14299  148625       0  148625  148624     0.5    0.00  1429.9 14862.4    0.00 14862.4 14862.4    0.01
 2022 157    37       0   14299  148621       0  148621  148620     0.6    0.00  1429.9 14862.1    0.00 14862.1 14862.0    0.02
 2022 158    38       0   14298  148617       0  148617  148616     0.8    0.00  1429.8 14861.6    0.00 14861.6 14861.6    0.02
 2022 159    39       0   14298  148613       0  148613  148612     1.0    0.00  1429.8 14861.2    0.00 14861.2 14861.2    0.03
 2022 160    40       0   14297  148608       0  148608  148607     1.3    0.00  1429.7 14860.8    0.00 14860.8 14860.7    0.04
 2022 161    41       0   14297  148604       0  148604  148603     1.6    0.00  1429.7 14860.3    0.00 14860.3 14860.3    0.04
 2022 162    42       0   14296  148600       0  148600  148598     1.9    0.00  1429.6 14859.8    0.00 14859.8 14859.8    0.05
 2022 163    43       0   14296  148595       0  148595  148593     2.4    0.00  1429.6 14859.4    0.00 14859.4 14859.3    0.06
 2022 164    44       0   14295  148591       0  148591  148588     2.8    0.00  1429.5 14858.8    0.00 14858.8 14858.8    0.07
 2022 165    45       0   14294  148585       0  148585  148581     3.4    0.00  1429.4 14858.2    0.00 14858.2 14858.1    0.08
 2022 166    46       0   14294  148579       0  148579  148575     4.0    0.00  1429.4 14857.6    0.00 14857.6 14857.5    0.08
 2022 167    47       0   14293  148574       0  148574  148569     4.7    0.00  1429.3 14857.0    0.00 14857.0 14856.9    0.09
 2022 168    48       0   14292  148569       0  148569  148563     5.5    0.00  1429.2 14856.4    0.00 14856.4 14856.3    0.11
 2022 169    49       0   14292  148564       0  148564  148557     6.4    0.00  1429.2 14855.8    0.00 14855.8 14855.7    0.12
 2022 170    50       0   14291  148559       0  148559  148551     7.3    0.00  1429.1 14855.3    0.00 14855.3 14855.1    0.13
 2022 171    51       0   14291  148554       0  148554  148545     8.2    0.00  1429.1 14854.7    0.00 14854.7 14854.5    0.14
 2022 172    52       0   14290  148548       0  148548  148539     9.3    0.00  1429.0 14854.1    0.00 14854.1 14853.9    0.16
 2022 173    53       0   14290  148543       0  148543  148533    10.3    0.00  1429.0 14853.5    0.00 14853.5 14853.3    0.17
 2022 174    54       0   14289  148539       0  148539  148528    11.4    0.00  1428.9 14852.9    0.00 14852.9 14852.8    0.19
 2022 175    55       0   14289  148535       0  148535  148522    12.5    0.00  1428.9 14852.4    0.00 14852.4 14852.2    0.20
 2022 176    56       0   14289  148531       0  148531  148518    13.7    0.00  1428.9 14852.0    0.00 14852.0 14851.8    0.22
 2022 177    57       0   14289  148528       0  148528  148513    14.9    0.00  1428.8 14851.6    0.00 14851.6 14851.3    0.24
 2022 178    58       0   14288  148525       0  148525  148509    16.2    0.00  1428.8 14851.2    0.00 14851.2 14850.9    0.26
 2022 179    59       0   14288  148523       0  148523  148505    17.6    0.00  1428.8 14850.8    0.00 14850.8 14850.5    0.28
 2022 180    60       0   14288  148520       0  148520  148501    19.0    0.00  1428.8 14850.4    0.00 14850.4 14850.1    0.29
 2022 181    61       0   14288  148518       0  148518  148497    20.5    0.00  1428.7 14850.0    0.00 14850.0 14849.7    0.31
 2022 182    62       0   14287  148515       0  148515  148493    22.0    0.00  1428.7 14849.6    0.00 14849.6 14849.3    0.33
 2022 183    63       0   14287  148512       0  148512  148489    23.6    0.00  1428.7 14849.2    0.00 14849.2 14848.8    0.35
 2022 184    64       0   14286  148508       0  148508  148483    24.8    0.00  1428.6 14848.7    0.00 14848.7 14848.3    0.38
 2022 185    65       0   14286  148504       0  148504  148478    25.9    0.00  1428.5 14848.2    0.00 14848.2 14847.7    0.41
 2022 186    66       0   14285  148499       0  148499  148472    27.0    0.00  1428.5 14847.6    0.00 14847.6 14847.2    0.45
 2022 187    67       0   14284  148494       0  148494  148466    28.0    0.00  1428.4 14847.0    0.00 14847.0 14846.6    0.48
 2022 188    68       0   14283  148489       0  148489  148460    29.0    0.00  1428.3 14846.5    0.00 14846.5 14845.9    0.51
 2022 189    69       0   14282  148484       0  148484  148454    30.0    0.00  1428.2 14845.9    0.00 14845.9 14845.3    0.55
 2022 190    70       0   14282  148479       0  148479  148448    30.8    0.00  1428.1 14845.3    0.00 14845.3 14844.7    0.58
 2022 191    71       0   14281  148473       0  148473  148442    31.7    0.00  1428.1 14844.7    0.00 14844.7 14844.0    0.61
 2022 192    72       0   14280  148468       0  148468  148435    32.6    0.00  1428.0 14844.0    0.00 14844.0 14843.4    0.64
 2022 193    73       0   14279  148463       0  148463  148429    33.6    0.00  1427.9 14843.5    0.00 14843.5 14842.8    0.68
 2022 194    74       0   14279  148458       0  148458  148424    34.7    0.00  1427.8 14842.9    0.00 14842.9 14842.2    0.71
 2022 195    75       0   14278  148454       0  148454  148418    36.0    0.00  1427.7 14842.3    0.00 14842.3 14841.6    0.74
 2022 196    76       0   14277  148449       0  148449  148412    37.3    0.00  1427.7 14841.8    0.00 14841.8 14841.0    0.77
 2022 197    77       0   14277  148445       0  148445  148407    38.6    0.00  1427.6 14841.3    0.00 14841.3 14840.5    0.80
 2022 198    78       0   14276  148441       0  148441  148401    40.0    0.00  1427.6 14840.7    0.00 14840.7 14839.9    0.83
 2022 199    79       0   14276  148437       0  148437  148396    41.5    0.00  1427.5 14840.2    0.00 14840.2 14839.4    0.86
 2022 200    80       0   14275  148433       0  148433  148390    43.0    0.00  1427.5 14839.7    0.00 14839.7 14838.8    0.89
 2022 201    81       0   14275  148430       0  148430  148385    44.7    0.00  1427.4 14839.2    0.00 14839.2 14838.3    0.92
 2022 202    82       0   14274  148427       0  148427  148381    46.4    0.00  1427.4 14838.8    0.00 14838.8 14837.8    0.95
 2022 203    83       0   14274  148423       0  148423  148376    47.9    0.00  1427.3 14838.3    0.00 14838.3 14837.3    0.98
 2022 204    84       0   14273  148420       0  148420  148370    49.4    0.00  1427.2 14837.8    0.00 14837.8 14836.8    1.01
 2022 205    85       0   14273  148416       0  148416  148365    50.9    0.00  1427.2 14837.3    0.00 14837.3 14836.3    1.05
 2022 206    86       0   14272  148413       0  148413  148361    52.5    0.00  1427.1 14836.9    0.00 14836.9 14835.8    1.08
 2022 207    87       0   14272  148410       0  148410  148356    54.1    0.00  1427.1 14836.4    0.00 14836.4 14835.3    1.11
 2022 208    88       0   14271  148407       0  148407  148351    55.6    0.00  1427.0 14836.0    0.00 14836.0 14834.8    1.14
 2022 209    89       0   14271  148404       0  148404  148347    56.9    0.00  1427.0 14835.5    0.00 14835.5 14834.4    1.18
 2022 210    90       0   14270  148401       0  148401  148343    58.2    0.00  1426.9 14835.1    0.00 14835.1 14833.9    1.21
 2022 211    91       0   14269  148398       0  148398  148338    59.5    0.00  1426.8 14834.8    0.00 14834.8 14833.5    1.25
 2022 212    92       0   14269  148395       0  148395  148334    60.7    0.00  1426.8 14834.3    0.00 14834.3 14833.1    1.28
 2022 213    93       0   14268  148392       0  148392  148330    62.0    0.00  1426.7 14833.9    0.00 14833.9 14832.6    1.31
 2022 214    94       0   14268  148389       0  148389  148325    63.3    0.00  1426.6 14833.5    0.00 14833.5 14832.2    1.35
 2022 215    95       0   14267  148385       0  148385  148320    64.6    0.00  1426.6 14833.0    0.00 14833.0 14831.7    1.38
 2022 216    96       0   14266  148381       0  148381  148316    65.9    0.00  1426.5 14832.6    0.00 14832.6 14831.2    1.42
 2022 217    97       0   14266  148378       0  148378  148311    67.2    0.00  1426.4 14832.1    0.00 14832.1 14830.6    1.45
 2022 218    98       0   14265  148374       0  148374  148306    68.6    0.00  1426.4 14831.6    0.00 14831.6 14830.1    1.49
 2022 219    99       0   14265  148371       0  148371  148301    70.1    0.00  1426.3 14831.2    0.00 14831.2 14829.6    1.52
 2022 220   100       0   14264  148368       0  148368  148296    71.6    0.00  1426.3 14830.7    0.00 14830.7 14829.2    1.56
 2022 221   101       0   14264  148365       0  148365  148292    73.2    0.00  1426.2 14830.4    0.00 14830.4 14828.8    1.60
 2022 222   102       0   14263  148363       0  148363  148288    74.8    0.00  1426.2 14830.0    0.00 14830.0 14828.3    1.63
 2022 223   103       0   14263  148361       0  148361  148284    76.5    0.00  1426.2 14829.6    0.00 14829.6 14828.0    1.67
 2022 224   104       0   14263  148359       0  148359  148281    78.3    0.00  1426.1 14829.3    0.00 14829.3 14827.6    1.71
 2022 225   105       0   14262  148357       0  148357  148277    80.0    0.00  1426.1 14828.9    0.00 14828.9 14827.2    1.75
 2022 226   106       0   14262  148354       0  148354  148272    81.7    0.00  1426.1 14828.5    0.00 14828.5 14826.7    1.79
 2022 227   107       0   14262  148352       0  148352  148268    83.5    0.00  1426.0 14828.2    0.00 14828.2 14826.3    1.83
 2022 228   108       0   14261  148349       0  148349  148264    84.9    0.00  1426.0 14827.7    0.00 14827.7 14825.9    1.86
 2022 229   109       0   14261  148346       0  148346  148260    86.4    0.00  1425.9 14827.3    0.00 14827.3 14825.4    1.90
 2022 230   110       0   14260  148343       0  148343  148256    87.9    0.00  1425.9 14827.0    0.00 14827.0 14825.0    1.94
 2022 231   111       0   14260  148341       0  148341  148252    89.5    0.00  1425.8 14826.6    0.00 14826.6 14824.6    1.98
 2022 232   112       0   14260  148339       0  148339  148248    91.1    0.00  1425.8 14826.3    0.00 14826.3 14824.3    2.02
 2022 233   113       0   14259  148338       0  148338  148245    92.8    0.00  1425.8 14826.0    0.00 14826.0 14823.9    2.06
 2022 234   114       0   14259  148336       0  148336  148242    94.6    0.00  1425.7 14825.7    0.00 14825.7 14823.6    2.10
 2022 235   115       0   14259  148335       0  148335  148238    96.3    0.00  1425.7 14825.4    0.00 14825.4 14823.2    2.14
 2022 236   116       0   14259  148333       0  148333  148235    98.1    0.00  1425.7 14825.1    0.00 14825.1 14822.9    2.18
 2022 237   117       0   14258  148331       0  148331  148231    99.9    0.00  1425.7 14824.8    0.00 14824.8 14822.6    2.22
 2022 238   118       0   14258  148330       0  148330  148228   101.7    0.00  1425.6 14824.5    0.00 14824.5 14822.2    2.27
 2022 239   119       0   14258  148328       0  148328  148224   103.5    0.00  1425.6 14824.1    0.00 14824.1 14821.8    2.31
 2022 240   120       0   14257  148325       0  148325  148220   105.2    0.00  1425.6 14823.8    0.00 14823.8 14821.4    2.35
 2022 241   121       0   14257  148323       0  148323  148216   107.0    0.00  1425.5 14823.4    0.00 14823.4 14821.0    2.40
 2022 242   122       0   14257  148321       0  148321  148213   108.8    0.00  1425.5 14823.1    0.00 14823.1 14820.6    2.44
 2022 243   123       0   14257  148320       0  148320  148209   110.6    0.00  1425.5 14822.8    0.00 14822.8 14820.3    2.48
 2022 244   124       0   14256  148318       0  148318  148205   112.4    0.00  1425.5 14822.4    0.00 14822.4 14819.9    2.53
 2022 245   125       0   14256  148316       0  148316  148202   114.2    0.00  1425.4 14822.1    0.00 14822.1 14819.6    2.57
 2022 246   126       0   14256  148315       0  148315  148199   116.0    0.00  1425.4 14821.8    0.00 14821.8 14819.2    2.62
 2022 247   127       0   14256  148313       0  148313  148195   117.7    0.00  1425.4 14821.5    0.00 14821.5 14818.9    2.66
 2022 248   128       0   14255  148311       0  148311  148192   119.5    0.00  1425.4 14821.3    0.00 14821.3 14818.5    2.71
 2022 249   129       0   14255  148310       0  148310  148189   121.4    0.00  1425.3 14821.0    0.00 14821.0 14818.2    2.76
 2022 250   130       0   14255  148309       0  148309  148186   123.2    0.00  1425.3 14820.7    0.00 14820.7 14817.9    2.80
 2022 251   131       0   14255  148307       0  148307  148182   125.0    0.00  1425.3 14820.4    0.00 14820.4 14817.6    2.85
 2022 252   132       0   14255  148306       0  148306  148179   126.8    0.00  1425.3 14820.1    0.00 14820.1 14817.2    2.90
 2022 253   133       0   14254  148305       0  148305  148176   128.7    0.00  1425.3 14819.9    0.00 14819.9 14816.9    2.94
 2022 254   134       0   14254  148303       0  148303  148173   130.3    0.00  1425.2 14819.6    0.00 14819.6 14816.6    2.99
 2022 255   135       0   14254  148302       0  148302  148170   132.0    0.00  1425.2 14819.3    0.00 14819.3 14816.3    3.04
 2022 256   136       0   14254  148301       0  148301  148167   133.7    0.00  1425.2 14819.1    0.00 14819.1 14816.0    3.09
 2022 257   137       0   14254  148300       0  148300  148165   135.5    0.00  1425.2 14818.9    0.00 14818.9 14815.8    3.13
 2022 258   138       0   14254  148299       0  148299  148162   137.3    0.00  1425.2 14818.7    0.00 14818.7 14815.5    3.18
 2022 259   139       0   14253  148298       0  148298  148159   139.0    0.00  1425.1 14818.4    0.00 14818.4 14815.2    3.23
 2022 260   140       0   14253  148296       0  148296  148156   140.2    0.00  1425.1 14818.1    0.00 14818.1 14814.8    3.28
 2022 261   141       0   14253  148291       0  148291  148152   139.2    0.00  1425.1 14817.7    0.00 14817.7 14814.5    3.28
 2022 262   142       0   14252  148287       0  148287  148148   138.2    0.00  1425.0 14817.4    0.00 14817.4 14814.1    3.27
 2022 263   143       0   14252  148282       0  148282  148145   137.3    0.00  1425.0 14817.0    0.00 14817.0 14813.7    3.27
