*GROWTH ASPECTS OUTPUT FILE

*DSSAT Cropping System Model Ver. 4.8.2.000 -release  FEB 28, 2025 20:35:43

*RUN   1        : silt_loam_13in_irr        MZCER048 UNLI2201    1
 MODEL          : MZCER048 - Maize
 EXPERIMENT     : UNLI2201 MZ IRRIGATED MAIZE PRODUCTION
 DATA PATH      :
 TREATMENT  1   : silt_loam_13in_irr        MZCER048
  
!                                                                                                                                                                                                                                      Root Dens. (cm/cm3) by soil depth (cm):
!                                                                                                                                                                                                                                      0-5    5-15   15-23   23-38   38-53   53-61   61-69   69-84   84-99  99-160
@YEAR DOY   DAS   DAP   L#SD   GSTD   LAID   LWAD   SWAD   GWAD   RWAD   VWAD   CWAD   G#AD   GWGD   HIAD   PWAD   P#AD   WSPD   WSGD   NSTD   EWSD  PST1A  PST2A   KSTD   LN%D   SH%D   HIPD   PWDD   PWTD     SLAD   CHTD   CWID   RDPD    RL1D    RL2D    RL3D    RL4D    RL5D    RL6D    RL7D    RL8D    RL9D   RL10D   CDAD   LDAD   SDAD   SNW0C   SNW1C  DTTD
 2022 129     9     0    0.0      0   0.00      0      0      0      0      0      0      0    0.0  0.000      0      0  0.000  0.000  0.000  0.000  0.000  0.000  0.000   0.00   0.00   0.00      0      0      0.0   0.00   0.00   0.05    0.00    0.00    0.00    0.00    0.00    0.00    0.00    0.00    0.00    0.00      0      0      0       0       0 10.11
 2022 130    10     1    0.0      0   0.00      0      0      0      0      0      0      0    0.0  0.000      0      0  0.000  0.000  0.000  0.000  0.000  0.000  0.000   0.00   0.00   0.00      0      0      0.0   0.00   0.00   0.06    0.00    0.00    0.00    0.00    0.00    0.00    0.00    0.00    0.00    0.00      0      0      0       0       0  9.87
 2022 131    11     2    0.0      0   0.00      0      0      0      0      0      0      0    0.0  0.000      0      0  0.000  0.000  0.000  0.000  0.000  0.000  0.000   0.00   0.00   0.00      0      0      0.0   0.00   0.00   0.09    0.00    0.00    0.00    0.00    0.00    0.00    0.00    0.00    0.00    0.00      0      0      0       0       0 16.47
 2022 132    12     3    0.0      0   0.00      0      0      0      0      0      0      0    0.0  0.000      0      0  0.000  0.000  0.000  0.000  0.000  0.000  0.000   0.00   0.00   0.00      0      0      0.0   0.00   0.00   0.11    0.00    0.00    0.00    0.00    0.00    0.00    0.00    0.00    0.00    0.00      0      0      0       0       0 14.94
 2022 133    13     4    0.0      0   0.00      0      0      0      0      0      0      0    0.0  0.000      0      0  0.000  0.000  0.000  0.000  0.000  0.000  0.000   0.00   0.00   0.00      0      0      0.0   0.00   0.00   0.13    0.00    0.00    0.00    0.00    0.00    0.00    0.00    0.00    0.00    0.00      0      0      0       0       0  9.12
 2022 134    14     5    0.0      0   0.00      0      0      0      0      0      0      0    0.0  0.000      0      0  0.000  0.000  0.000  0.000  0.000  0.000  0.000   0.00   0.00   0.00      0      0      0.0   0.00   0.00   0.14    0.00    0.00    0.00    0.00    0.00    0.00    0.00    0.00    0.00    0.00      0      0      0       0       0  8.88
 2022 135    15     6    0.0      0   0.00      0      0      0      0      0      0      0    0.0  0.000      0      0  0.000  0.000  0.000  0.000  0.000  0.000  0.000   0.00   0.00   0.00      0      0      0.0   0.00   0.00   0.15    0.00    0.00    0.00    0.00    0.00    0.00    0.00    0.00    0.00    0.00      0      0      0       0       0  9.67
 2022 136    16     7    0.0      0   0.00      0      0      0      0      0      0      0    0.0  0.000      0      0  0.000  0.000  0.000  0.000  0.000  0.000  0.000   0.00   0.00   0.00      0      0      0.0   0.00   0.00   0.17    0.00    0.00    0.00    0.00    0.00    0.00    0.00    0.00    0.00    0.00      0      0      0       0       0 12.79
 2022 137    17     8    1.0      1   0.00     16     16      0     16     32     32      0    0.0  0.000      0      0  0.000  0.000  0.012  0.000  0.000  0.000  0.000   4.40   0.00   0.00      0      0     23.0   0.00   0.00   0.19    0.32    0.16    0.06    0.00    0.00    0.00    0.00    0.00    0.00    0.00      0      0      0       0       0 15.27
 2022 138    18     9    2.0      1   0.01     16     16      0     17     32     32      0    0.0  0.000      0      0  0.000  0.000  0.011  0.000  0.000  0.000  0.000   4.40   0.00   0.00      0      0     42.5   0.00   0.00   0.20    0.32    0.17    0.06    0.00    0.00    0.00    0.00    0.00    0.00    0.00      0      0      0       0       0 14.32
 2022 139    19    10    2.0      1   0.01     16     16      0     18     32     32      0    0.0  0.000      0      0  0.000  0.000  0.005  0.000  0.000  0.000  0.000   4.40   0.00   0.00      0      0     64.2   0.00   0.00   0.22    0.33    0.17    0.07    0.00    0.00    0.00    0.00    0.00    0.00    0.00      0      0      0       0       0 14.14
 2022 140    20    11    2.0      1   0.01     16     16      0     18     32     32      0    0.0  0.000      0      0  0.000  0.000  0.005  0.000  0.000  0.000  0.000   4.40   0.00   0.00      0      0     66.3   0.00   0.00   0.22    0.33    0.18    0.07    0.00    0.00    0.00    0.00    0.00    0.00    0.00      0      0      0       0       0  1.45
 2022 141    21    12    2.0      1   0.01     16     16      0     18     32     32      0    0.0  0.000      0      0  0.000  0.000  0.004  0.000  0.000  0.000  0.000   4.40   0.00   0.00      0      0     38.3   0.00   0.00   0.22    0.34    0.18    0.07    0.00    0.00    0.00    0.00    0.00    0.00    0.00      0      0      0       0       0  1.03
 2022 142    22    13    2.0      1   0.00     16     16      0     19     32     32      0    0.0  0.000      0      0  0.000  0.000  0.003  0.000  0.000  0.000  0.000   4.40   0.00   0.00      0      0      5.7   0.00   0.00   0.22    0.34    0.18    0.08    0.00    0.00    0.00    0.00    0.00    0.00    0.00      0      0      0       0       0  2.61
 2022 143    23    14    2.0      1   0.00     16     16      0     19     32     32      0    0.0  0.000      0      0  0.000  0.000  0.003  0.000  0.000  0.000  0.000   4.40   0.00   0.00      0      0      8.4   0.00   0.00   0.22    0.34    0.18    0.08    0.00    0.00    0.00    0.00    0.00    0.00    0.00      0      0      0       0       0  1.70
 2022 144    24    15    3.0      1   0.00     16     16      0     19     32     32      0    0.0  0.000      0      0  0.000  0.000  0.002  0.000  0.000  0.000  0.000   4.40   0.00   0.00      0      0     11.4   0.00   0.00   0.23    0.33    0.18    0.08    0.00    0.00    0.00    0.00    0.00    0.00    0.00      0      0      0       0       0  1.94
 2022 145    25    16    3.0      1   0.00     16     16      0     19     32     32      0    0.0  0.000      0      0  0.000  0.000  0.000  0.000  0.000  0.000  0.000   4.40   0.00   0.00      0      0     22.5   0.00   0.00   0.23    0.34    0.18    0.08    0.00    0.00    0.00    0.00    0.00    0.00    0.00      0      0      0       0       0  6.68
 2022 146    26    17    3.0      1   0.01     16     16      0     20     32     32      0    0.0  0.000      0      0  0.000  0.000  0.000  0.000  0.000  0.000  0.000   4.40   0.00   0.00      0      0     39.1   0.00   0.00   0.24    0.34    0.19    0.08    0.00    0.00    0.00    0.00    0.00    0.00    0.00      0      0      0       0       0 10.56
 2022 147    27    18    3.0      1   0.01     16     16      0     21     32     32      0    0.0  0.000      0      0  0.000  0.000  0.000  0.000  0.000  0.000  0.000   4.40   0.00   0.00      0      0     68.1   0.00   0.00   0.25    0.37    0.19    0.09    0.00    0.00    0.00    0.00    0.00    0.00    0.00      0      0      0       0       0 14.98
 2022 148    28    19    4.0      1   0.03     16     16      0     23     32     32      0    0.0  0.000      0      0  0.000  0.000  0.000  0.000  0.000  0.000  0.000   4.40   0.00   0.00      0      0    165.4   0.01   0.00   0.26    0.41    0.20    0.10    0.00    0.00    0.00    0.00    0.00    0.00    0.00      0      0      0       0       0 15.07
 2022 149    29    20    4.0      1   0.04     16     16      0     27     32     32      0    0.0  0.000      0      0  0.000  0.000  0.000  0.000  0.000  0.000  0.000   4.40   0.00   0.00      0      0    274.8   0.02   0.00   0.27    0.50    0.22    0.12    0.00    0.00    0.00    0.00    0.00    0.00    0.00      0      0      0       0       0 14.83
 2022 150    30    21    4.0      1   0.05     19     16      0     31     35     35      0    0.0  0.000      0      0  0.000  0.000  0.000  0.000  0.000  0.000  0.000   4.02   0.00   0.00      0      0    277.3   0.02   0.00   0.28    0.58    0.24    0.14    0.01    0.00    0.00    0.00    0.00    0.00    0.00      0      0      0       0       0  7.12
 2022 151    31    22    4.0      1   0.06     23     16      0     36     39     39      0    0.0  0.000      0      0  0.000  0.000  0.000  0.000  0.000  0.000  0.000   3.80   0.00   0.00      0      0    275.2   0.03   0.00   0.28    0.67    0.26    0.16    0.01    0.00    0.00    0.00    0.00    0.00    0.00      0      0      0       0       0  7.11
 2022 152    32    23    5.0      1   0.07     26     16      0     44     42     42      0    0.0  0.000      0      0  0.000  0.000  0.000  0.000  0.000  0.000  0.000   3.77   0.00   0.00      0      0    272.2   0.03   0.00   0.29    0.85    0.29    0.19    0.02    0.00    0.00    0.00    0.00    0.00    0.00      0      0      0       0       0  7.28
 2022 153    33    24    5.0      1   0.08     32     16      0     54     48     48      0    0.0  0.000      0      0  0.000  0.000  0.000  0.000  0.000  0.000  0.000   3.69   0.00   0.00      0      0    265.4   0.04   0.00   0.29    1.04    0.34    0.23    0.03    0.00    0.00    0.00    0.00    0.00    0.00      0      0      0       0       1  8.55
 2022 154    34    25    5.0      1   0.10     39     16      0     66     55     55      0    0.0  0.000      0      0  0.000  0.000  0.000  0.000  0.000  0.000  0.000   3.56   0.00   0.00      0      0    260.3   0.04   0.00   0.30    1.18    0.41    0.31    0.05    0.00    0.00    0.00    0.00    0.00    0.00      0      0      0       0       1 10.74
 2022 155    35    26    5.0      1   0.13     50     16      0     80     66     66      0    0.0  0.000      0      0  0.000  0.000  0.000  0.000  0.000  0.000  0.000   3.35   0.00   0.00      0      0    252.6   0.05   0.00   0.31    1.28    0.51    0.41    0.08    0.00    0.00    0.00    0.00    0.00    0.00      0      0      0       0       1 14.99
 2022 156    36    27    6.0      1   0.15     63     16      0     93     79     79      0    0.0  0.000      0      0  0.000  0.000  0.000  0.000  0.000  0.000  0.000   3.19   0.00   0.00      0      0    245.4   0.07   0.00   0.32    1.36    0.60    0.50    0.11    0.00    0.00    0.00    0.00    0.00    0.00      0      0      0       0       2 14.32
 2022 157    37    28    6.0      1   0.18     78     16      0    115     94     94      0    0.0  0.000      0      0  0.000  0.000  0.025  0.000  0.000  0.000  0.000   2.88   0.00   0.00      0      0    237.0   0.08   0.00   0.34    1.51    0.75    0.65    0.17    0.00    0.00    0.00    0.00    0.00    0.00      0      0      0       0       2 15.48
 2022 158    38    29    6.0      1   0.20     89     16      0    121    105    105      0    0.0  0.000      0      0  0.000  0.000  0.069  0.000  0.000  0.000  0.000   2.84   0.00   0.00      0      0    230.6   0.09   0.00   0.35    1.54    0.79    0.69    0.18    0.00    0.00    0.00    0.00    0.00    0.00      0      0      0       0       3  9.77
 2022 159    39    30    6.0      1   0.23    103     16      0    153    119    119      0    0.0  0.000      0      0  0.000  0.000  0.106  0.000  0.000  0.000  0.000   2.61   0.00   0.00      0      0    222.6   0.10   0.00   0.37    1.75    1.00    0.90    0.29    0.00    0.00    0.00    0.00    0.00    0.00      0      0      0       0       3 11.83
 2022 160    40    31    7.0      2   0.25    108     16      0    176    124    124      0    0.0  0.000      0      0  0.000  0.000  0.128  0.000  0.000  0.000  0.000   2.64   0.00   0.00      0      0    233.5   0.11   0.00   0.39    1.88    1.14    1.04    0.37    0.00    0.00    0.00    0.00    0.00    0.00      0      0      0       0       4 13.73
 2022 161    41    32    7.0      2   0.28    123     16      0    208    139    139      0    0.0  0.000      0      0  0.000  0.000  0.160  0.000  0.000  0.000  0.000   2.45   0.00   0.00      0      0    225.0   0.12   0.00   0.41    2.07    1.33    1.23    0.48    0.01    0.00    0.00    0.00    0.00    0.00      0      0      0       0       5 15.26
 2022 162    42    33    7.0      2   0.31    146     16      0    241    162    162      0    0.0  0.000      0      0  0.000  0.000  0.156  0.000  0.000  0.000  0.000   2.19   0.00   0.00      0      0    216.0   0.13   0.00   0.43    2.27    1.52    1.43    0.58    0.04    0.00    0.00    0.00    0.00    0.00      0      0      0       0       6 19.67
 2022 163    43    34    8.0      2   0.35    170     16      0    277    186    186      0    0.0  0.000      0      0  0.000  0.000  0.181  0.000  0.000  0.000  0.000   1.99   0.00   0.00      0      0    207.4   0.15   0.00   0.46    2.46    1.73    1.63    0.69    0.09    0.00    0.00    0.00    0.00    0.00      0      0      0       0       7 20.59
 2022 164    44    35    8.0      2   0.39    196     16      0    309    212    212      0    0.0  0.000      0      0  0.000  0.000  0.238  0.000  0.000  0.000  0.000   1.85   0.00   0.00      0      0    198.7   0.17   0.00   0.49    2.64    1.91    1.81    0.79    0.14    0.00    0.00    0.00    0.00    0.00      0      0      0       0       8 23.20
 2022 165    45    36    9.0      2   0.41    216     16      0    349    232    232      0    0.0  0.000      0      0  0.000  0.000  0.300  0.000  0.000  0.000  0.000   1.81   0.00   0.00      0      0    191.1   0.18   0.00   0.51    2.84    2.12    2.02    0.91    0.21    0.00    0.00    0.00    0.00    0.00      0      0      0       0      10 17.50
 2022 166    46    37    9.0      2   0.43    235     16      0    390    251    251      0    0.0  0.000      0      0  0.000  0.000  0.349  0.000  0.000  0.000  0.000   1.78   0.00   0.00      0      0    184.0   0.19   0.00   0.53    3.06    2.33    2.24    1.03    0.30    0.00    0.00    0.00    0.00    0.00      0      0      0       0      12 16.47
 2022 167    47    38    9.0      3   0.45    254     16      0    433    270    270      0    0.0  0.000      0      0  0.000  0.000  0.362  0.000  0.000  0.000  0.000   1.74   0.00   0.00      0      0    175.4   0.19   0.00   0.55    3.28    2.55    2.46    1.15    0.40    0.01    0.00    0.00    0.00    0.00      0      0      0       0      14 16.06
 2022 168    48    39   10.0      3   0.48    284     16      0    470    300    300      0    0.0  0.000      0      0  0.000  0.000  0.363  0.000  0.000  0.000  0.000   1.65   0.00   0.00      0      0    169.0   0.21   0.00   0.57    3.46    2.74    2.65    1.25    0.47    0.05    0.00    0.00    0.00    0.00      0      0      0       0      16 22.37
 2022 169    49    40   10.0      3   0.52    318     17      0    508    336    336      0    0.0  0.000      0      0  0.000  0.000  0.369  0.000  0.000  0.000  0.000   1.53   0.00   0.00      0      0    163.1   0.22   0.00   0.60    3.44    2.95    2.86    1.37    0.56    0.10    0.00    0.00    0.00    0.00      0      0      0       0      18 23.53
 2022 170    50    41   11.0      3   0.56    353     19      0    541    373    373      0    0.0  0.000      0      0  0.000  0.000  0.408  0.000  0.000  0.000  0.000   1.43   0.00   0.00      0      0    157.3   0.24   0.00   0.62    3.42    3.14    3.05    1.47    0.64    0.17    0.00    0.00    0.00    0.00      0      0      0       0      21 23.45
 2022 171    51    42   11.0      3   0.58    385     22      0    565    407    407      0    0.0  0.000      0      0  0.000  0.000  0.450  0.000  0.000  0.000  0.000   1.37   0.00   0.00      0      0    151.7   0.25   0.00   0.65    3.40    3.27    3.18    1.54    0.69    0.21    0.02    0.00    0.00    0.00      0      0      0       0      23 21.30
 2022 172    52    43   11.0      3   0.59    401     24      0    585    425    425      0    0.0  0.000      0      0  0.000  0.000  0.489  0.000  0.000  0.000  0.000   1.37   0.00   0.00      0      0    146.3   0.25   0.00   0.66    3.39    3.38    3.29    1.60    0.74    0.25    0.04    0.00    0.00    0.00      0      0      0       0      26 11.60
 2022 173    53    44   12.0      3   0.59    419     27      0    615    445    445      0    0.0  0.000      0      0  0.000  0.000  0.512  0.000  0.000  0.000  0.000   1.36   0.00   0.00      0      0    141.0   0.25   0.00   0.67    3.37    3.54    3.45    1.69    0.81    0.30    0.08    0.00    0.00    0.00      0      0      0       0      29 11.95
 2022 174    54    45   12.0      3   0.61    449     32      0    649    481    481      0    0.0  0.000      0      0  0.000  0.000  0.501  0.000  0.000  0.000  0.000   1.31   0.00   0.00      0      0    136.5   0.26   0.00   0.69    3.35    3.72    3.63    1.79    0.89    0.36    0.14    0.00    0.00    0.00      0      0      0       0      32 18.63
 2022 175    55    46   12.0      3   0.63    478     38      0    674    516    516      0    0.0  0.000      0      0  0.000  0.000  0.496  0.000  0.000  0.000  0.000   1.27   0.00   0.00      0      0    132.2   0.27   0.00   0.71    3.33    3.85    3.76    1.86    0.94    0.40    0.18    0.00    0.00    0.00      0      0      0       0      36 17.65
 2022 176    56    47   13.0      3   0.64    497     43      0    704    540    540      0    0.0  0.000      0      0  0.000  0.000  0.515  0.000  0.000  0.000  0.000   1.25   0.00   0.00      0      0    127.8   0.27   0.00   0.72    3.32    4.00    3.91    1.94    1.00    0.45    0.23    0.01    0.00    0.00      0      0      0       0      39 12.10
 2022 177    57    48   13.0      3   0.63    509     46      0    732    555    555      0    0.0  0.000      0      0  0.000  0.000  0.535  0.000  0.000  0.000  0.000   1.25   0.00   0.00      0      0    123.2   0.27   0.00   0.73    3.30    4.00    4.00    2.02    1.07    0.49    0.28    0.02    0.00    0.00      0      0      0       0      42  8.11
 2022 178    58    49   13.0      3   0.63    529     53      0    769    581    581      0    0.0  0.000      0      0  0.000  0.000  0.536  0.000  0.000  0.000  0.000   1.23   0.00   0.00      0      0    119.3   0.27   0.00   0.74    3.28    4.00    4.00    2.12    1.15    0.55    0.34    0.04    0.00    0.00      0      0      0       0      46 13.35
 2022 179    59    50   13.0      3   0.64    553     62      0    799    615    615      0    0.0  0.000      0      0  0.000  0.000  0.525  0.000  0.000  0.000  0.000   1.20   0.00   0.00      0      0    115.8   0.27   0.00   0.75    3.27    4.00    4.00    2.20    1.21    0.60    0.39    0.06    0.00    0.00      0      0      0       0      50 15.81
 2022 180    60    51   14.0      3   0.66    584     76      0    819    660    660      0    0.0  0.000      0      0  0.000  0.000  0.524  0.000  0.000  0.000  0.000   1.15   0.00   0.00      0      0    112.8   0.28   0.00   0.77    3.25    4.00    4.00    2.26    1.25    0.63    0.42    0.08    0.00    0.00      0      0      0       0      54 20.10
 2022 181    61    52   14.0      3   0.67    614     91      0    832    705    705      0    0.0  0.000      0      0  0.000  0.000  0.529  0.000  0.000  0.000  0.000   1.11   0.00   0.00      0      0    109.8   0.29   0.00   0.79    3.23    4.00    4.00    2.29    1.28    0.65    0.44    0.09    0.00    0.00      0      0      0       0      58 19.00
 2022 182    62    53   15.0      3   0.68    638    105      0    850    743    743      0    0.0  0.000      0      0  0.000  0.000  0.545  0.000  0.000  0.000  0.000   1.08   0.00   0.00      0      0    106.7   0.29   0.00   0.81    3.22    4.00    4.00    2.34    1.31    0.68    0.47    0.10    0.00    0.00      0      0      0       0      62 16.20
 2022 183    63    54   15.0      3   0.68    658    118      0    873    775    775      0    0.0  0.000      0      0  0.000  0.000  0.558  0.000  0.000  0.000  0.000   1.10   0.00   0.00      0      0    103.4   0.29   0.00   0.82    3.32    4.00    4.00    2.39    1.36    0.71    0.50    0.13    0.00    0.00      0      0      0       0      66 14.15
 2022 184    64    55   15.0      3   0.69    687    140      0    890    827    827      0    0.0  0.000      0      0  0.000  0.000  0.541  0.000  0.000  0.000  0.000   1.07   0.00   0.00      0      0    100.8   0.30   0.00   0.84    3.40    4.00    4.00    2.43    1.39    0.73    0.53    0.15    0.00    0.00      0      0      0       0      71 19.51
 2022 185    65    56   16.0      3   0.71    718    166      0    909    884    884      0    0.0  0.000      0      0  0.000  0.000  0.533  0.000  0.000  0.000  0.000   1.04   0.00   0.00      0      0     98.5   0.30   0.00   0.86    3.48    4.00    4.00    2.47    1.42    0.76    0.56    0.17    0.00    0.00      0      0      0       0      75 19.66
 2022 186    66    57   16.0      3   0.72    750    195      0    924    945    945      0    0.0  0.000      0      0  0.000  0.000  0.535  0.000  0.000  0.000  0.000   1.01   0.00   0.00      0      0     96.2   0.31   0.00   0.87    3.55    4.00    4.00    2.51    1.45    0.78    0.58    0.19    0.00    0.00      0      0      0       0      80 19.88
 2022 187    67    58   17.0      3   0.73    774    221      0    923    995    995      0    0.0  0.000      0      0  0.000  0.000  0.540  0.000  0.000  0.000  0.000   1.00   0.00   0.00      0      0     93.6   0.31   0.00   0.88    3.54    4.00    4.00    2.50    1.44    0.78    0.58    0.19    0.00    0.00      0      0      0       0      84 15.80
 2022 188    68    59   17.0      3   0.74    810    262      0    923   1072   1072      0    0.0  0.000      0      0  0.000  0.000  0.545  0.000  0.000  0.000  0.000   0.97   0.00   0.00      0      0     91.7   0.32   0.00   0.90    3.54    3.99    3.99    2.50    1.44    0.78    0.58    0.19    0.00    0.00      0      0      0       0      89 16.05
 2022 189    69    60   17.0      3   0.76    844    318      0    930   1162   1164      0    0.0  0.000      1      0  0.000  0.000  0.540  0.000  0.000  0.000  0.000   0.93   0.00   0.00      0      1     89.7   0.32   0.00   0.91    3.57    4.00    4.00    2.51    1.46    0.79    0.59    0.20    0.01    0.00      0      0      0       0      94 17.20
 2022 190    70    61   18.0      3   0.77    874    380      0    935   1253   1257      0    0.0  0.000      4      0  0.000  0.000  0.548  0.000  0.000  0.000  0.000   0.90   0.00   0.00      0      4     87.6   0.33   0.00   0.93    3.60    4.00    4.00    2.52    1.47    0.80    0.60    0.21    0.02    0.00      0      0      0       0      98 19.62
 2022 191    71    62   18.0      3   0.77    900    443      0    941   1343   1350      0    0.0  0.000      7      0  0.000  0.000  0.557  0.000  0.000  0.000  0.000   0.87   0.00   0.00      0      7     85.3   0.33   0.00   0.94    3.62    4.00    4.00    2.53    1.47    0.81    0.61    0.21    0.03    0.00      0      0      0       0     103 21.24
 2022 192    72    63   18.0      3   0.76    914    480      0    965   1394   1405      0    0.0  0.000     11      0  0.000  0.000  0.567  0.000  0.000  0.000  0.000   0.87   0.00   0.01      0     11     82.6   0.33   0.00   0.95    3.72    4.00    4.00    2.58    1.51    0.84    0.64    0.24    0.06    0.00      0      0      0       0     108 13.40
 2022 193    73    64   19.0      3   0.74    927    514      0    987   1441   1457      0    0.0  0.000     16      0  0.000  0.000  0.575  0.000  0.000  0.000  0.000   0.87   0.00   0.01      0     16     79.9   0.33   0.00   0.97    3.80    4.00    4.00    2.62    1.55    0.86    0.67    0.26    0.09    0.00      0      0      0       0     113 13.55
 2022 194    74    65   19.0      3   0.73    945    565      0    994   1510   1532      0    0.0  0.000     22      0  0.000  0.000  0.563  0.000  0.000  0.000  0.000   0.86   0.00   0.01      0     22     77.6   0.33   0.00   0.98    3.83    4.00    4.00    2.64    1.56    0.87    0.68    0.27    0.10    0.00      0      0      0       0     117 18.69
 2022 195    75    66   19.0      3   0.73    965    623      0   1005   1587   1621      0    0.0  0.000     34      0  0.000  0.000  0.548  0.000  0.000  0.000  0.000   0.85   0.00   0.02      0     34     75.6   0.33   0.00   1.00    3.87    4.00    4.00    2.65    1.57    0.88    0.69    0.28    0.12    0.00      0      0      0       0     122 21.33
 2022 196    76    67   20.0      3   0.72    981    668      0   1018   1649   1698      0    0.0  0.000     49      0  0.000  0.000  0.542  0.000  0.000  0.000  0.000   0.84   0.00   0.03      0     49     73.5   0.33   0.00   1.01    3.92    4.00    4.00    2.68    1.60    0.90    0.71    0.29    0.14    0.00      0      0      0       0     127 18.04
 2022 197    77    68   20.0      3   0.71    996    713      0   1017   1708   1771      0    0.0  0.000     62      0  0.000  0.000  0.547  0.000  0.000  0.000  0.000   0.84   0.00   0.04      0     62     71.4   0.33   0.00   1.02    3.92    4.00    4.00    2.67    1.59    0.90    0.71    0.29    0.14    0.00      0      0      0       0     133 19.06
 2022 198    78    69   20.0      3   0.70   1010    744      0   1030   1754   1842      0    0.0  0.000     88      0  0.000  0.000  0.548  0.000  0.000  0.000  0.000   0.84   0.00   0.05      0     88     69.3   0.33   0.00   1.04    3.98    4.00    4.00    2.70    1.62    0.92    0.73    0.31    0.15    0.00      0      0      0       0     138 17.55
 2022 199    79    70   20.0      3   0.69   1027    775      0   1040   1802   1925      0    0.0  0.000    122      0  0.000  0.000  0.547  0.000  0.000  0.000  0.000   0.84   0.00   0.06      0    122     67.5   0.33   0.00   1.05    4.00    4.00    4.00    2.72    1.63    0.93    0.74    0.32    0.16    0.00      0      0      0       0     143 20.09
 2022 200    80    71   20.0      3   0.68   1041    788      0   1058   1830   1995      0    0.0  0.000    165      0  0.000  0.000  0.543  0.000  0.000  0.000  0.000   0.85   0.00   0.08      0    165     65.7   0.33   0.00   1.06    4.00    4.00    4.00    2.76    1.66    0.95    0.77    0.34    0.17    0.01      0      0      0       0     148 16.90
 2022 201    81    72   20.0      3   0.67   1055    793      0   1075   1847   2061      0    0.0  0.000    214      0  0.000  0.000  0.541  0.000  0.000  0.000  0.000   0.86   0.00   0.10      0    214     63.9   0.33   0.00   1.07    3.98    4.00    4.00    2.80    1.69    0.98    0.79    0.36    0.19    0.02      0      0      0       0     153 15.69
 2022 202    82    73   20.0      3   0.67   1072    806      0   1079   1877   2143      0    0.0  0.000    265      0  0.000  0.000  0.532  0.000  0.000  0.000  0.000   0.87   0.00   0.12      0    265     62.3   0.33   0.00   1.08    4.00    4.00    4.00    2.80    1.70    0.98    0.80    0.36    0.19    0.02      0      0      0       0     159 18.78
 2022 203    83    74   20.0      4   0.64   1057    894      0   1078   1950   2231      0    0.0  0.000    281      0  0.000  0.000  0.517  0.000  0.000  0.000  0.000   0.85   0.00   0.13      0    281     60.8   0.33   0.00   1.10    4.00    4.00    4.00    2.80    1.70    0.98    0.80    0.36    0.19    0.02      0      0      0       0     164 19.02
 2022 204    84    75   20.0      4   0.62   1041    967      0   1077   2008   2303      0    0.0  0.000    296      0  0.000  0.000  0.503  0.000  0.000  0.000  0.000   0.85   0.00   0.13      0    296     59.4   0.33   0.00   1.11    3.99    3.99    3.99    2.79    1.69    0.98    0.80    0.37    0.19    0.02      0      0      0       0     169 21.40
 2022 205    85    76   20.0      4   0.59   1024   1040      0   1075   2064   2376      0    0.0  0.000    312      0  0.000  0.000  0.506  0.000  0.000  0.000  0.000   0.85   0.00   0.13      0    312     58.1   0.33   0.00   1.12    3.99    3.99    3.99    2.79    1.69    0.98    0.80    0.37    0.19    0.02      0      0      0       0     175 15.00
 2022 206    86    77   20.0      4   0.57   1006   1056      0   1071   2062   2378      0    0.0  0.000    316      0  0.000  0.000  0.505  0.000  0.000  0.000  0.000   0.86   0.00   0.13      0    316     56.9   0.33   0.00   1.13    3.97    3.97    3.97    2.77    1.68    0.98    0.80    0.36    0.19    0.02      0      0      0       0     180 12.10
 2022 207    87    78   20.0      4   0.55    987   1098      0   1068   2085   2411      0    0.0  0.000    326      0  0.000  0.000  0.504  0.000  0.000  0.000  0.000   0.87   0.00   0.14      0    326     55.8   0.33   0.00   1.14    3.96    3.96    3.96    2.77    1.68    0.97    0.79    0.36    0.19    0.02      0      0      0       0     186 14.65
 2022 208    88    79   20.0      4   0.53    967   1143      0   1065   2110   2448      0    0.0  0.000    338      0  0.000  0.000  0.486  0.000  0.000  0.000  0.000   0.88   0.00   0.14      0    338     54.9   0.33   0.00   1.15    3.95    3.95    3.95    2.76    1.67    0.97    0.79    0.36    0.19    0.02      0      0      0       0     191 13.20