*EXP.DETAILS: UNLI2201MZ IRRIGATED MAIZE PRODUCTION                                  

*FILES
@N  EXP.DATA    AFILE        ADIR
  1 EXP         UNLI2201.MZA                                                                                 
@N  SPECIES     SPFILE       SPDIR
  1 SPE         MZCER048.SPE C:\DSSAT48\GENOTYPE\                                                            
@N  ECOTYPE     EFILE        EDIR
  1 ECO         MZCER048.ECO C:\DSSAT48\GENOTYPE\                                                            
@N  CULTIVAR    CFILE        CDIR
  1 CUL         MZCER048.CUL C:\DSSAT48\GENOTYPE\                                                            
@N  SOIL        SFILE        SDIR
  1 SOIL        NE.SOL                                                                                       
@N  WEATHER     WFILE        WDIR
  1 WEATH       NENP2201.WTH                                                                                 

*SIMULATION CONTROL
@N  GENERAL     NYERS NREPS START   SDATE RSEED SNAME.................... MODEL...
  1 GE              1     1     S 2022121  2150 UNL                       MZCER048
@N  OPTIONS     WATER NITRO SYMBI PHOSP POTAS DISES  CHEM  TILL   CO2
  1 OP              Y     Y     N     N     N     N     N     N     W
@N  METHODS     WTHER INCON LIGHT EVAPO INFIL PHOTO HYDRO NSWIT SOMDY MESEV MESOL METMP MEGHG
  1 ME              M     M     E     R     S     R     R     1     G     S     2     D     0
@N  MANAGEMENT  PLANT IRRIG FERTI RESID HARVS
  1 MA              R     R     R     R     M
@N  OUTPUTS     FNAME OVVEW SUMRY FROPT GROUT CAOUT WAOUT NIOUT MIOUT DIOUT  LONG CHOUT OPOUT
  1 OU              Y     Y     A     1     Y     Y     Y     Y     Y     Y     A     Y     Y

!AUTOMATIC MANAGEM
@N  PLANTING      PFRST   PLAST PH2OL PH2OU PH2OD PSTMX PSTMN
  1 PL              -99     -99   40.  100.   30.   40.   10.
@N  IRRIGATION  IMDEP ITHRL ITHRU IROFF IMETH IRAMT IREFF
  1 IR           180.   50.  100. GS006 IR004 230.0 1.000
@N  NITROGEN    NMDEP NMTHR NAMNT NCODE NAOFF
  1 NI           100.    1.   20. FE001 GS000
@N  RESIDUES    RIPCN RTIME RIDEP
  1 RE             0. 96137  100.
@N  HARVEST     HFRST   HLAST HPCNP HRCNR
  1 HA              0     -99  100.    0.

*TREATMENTS
@N   R O C TNAME....................  CU  FL  SA  IC  MP  MI  MF  MR  MC  MT  ME  MH  SM
  1  0 0 0 silt_loam_13in_irr          1   1   0   0   1   1   1   0   0   0   0   0   1

*CULTIVARS
@C  CR INGENO CNAME
  1 MZ IB1066 PIO 3489        

*FIELDS
@L  ID_FIELD WSTA....  FLSA  FLOB  FLDT  FLDD  FLDS  FLST SLTX   SLDP ID_SOIL    PMALB  PMWD
  1 UCCO0001 NENP2201   0.0    0. DR000    0.  100. 00000 SL     200. NENP230001-99.00 -99.0
@L             XCRD            YCRD      ELEV              AREA  SLEN  FLWR  SLAS PRMGT
  1         0.00000         0.00000      0.00               1.0  100.   1.0   0.0   -99   -99

*INITIAL CONDITIONS
@C  PCR     ICDAT  ICRT  ICND  ICRN  ICRE  ICWD ICRES ICREN ICREP ICRIP ICRID
  0             0     0     0  1.00  1.00 -99.0     0  0.00  0.00  100.    0.
@C   ICBL  SH2O  SNH4  SNO3
  0    5. 0.200   0.0   0.0
  0   15. 0.207   0.0   0.0
  0   23. 0.210   0.0   0.0
  0   38. 0.210   0.0   0.0
  0   53. 0.170   0.0   0.0
  0   61. 0.150   0.0   0.0
  0   69. 0.150   0.0   0.0
  0   84. 0.190   0.0   0.0
  0   99. 0.180   0.0   0.0
  0  114. 0.180   0.0   0.0
  0  130. 0.180   0.0   0.0
  0  145. 0.200   0.0   0.0
  0  160. 0.190   0.0   0.0

*PLANTING DETAILS
@P    PDATE   EDATE  PPOP  PPOE  PLME  PLDS  PLRS  PLRD  PLDP  PLWT  PAGE  PENV  PLPH  SPRL
  1 2022129     -99   8.0   8.0     S     R   30.    0.   5.0  -99.  -99. -99.0 -99.0 -99.0

*IRRIGATION
@I   IEFF  IDEP  ITHR  IEPT  IOFF  IAME  IAMT
  1 1.000   30.   50.  100. GS000 IR001  10.0
@I    IDATE  IROP IRVAL
  1 2022129 IR001   0.0

*FERTILIZERS
@F    FDATE  FMCD  FACD  FDEP  FAMN  FAMP  FAMK  FAMC  FAMO  FOCD
  1 2022129 FE001 AP001   10.    0.  -99.  -99.  -99.  -99.   -99

*RESIDUES
@R    RDATE  RCOD  RAMT  RESN  RESP  RESK  RINP  RDEP  RMET

*CHEMICALS
@C    CDATE CHCOD CHAMT  CHME CHDEP   CHT

*TILLAGE
@T    TDATE TIMPL  TDEP

*ENVIRONMENT
@E    ODATE  EDAY  ERAD  EMAX  EMIN ERAIN  ECO2  EDEW EWIND

*HARVEST
@H    HDATE  HSTG  HCOM HSIZE   HPC  HBPC
