*PLANT N OUTPUT FILE

*DSSAT Cropping System Model Ver. 4.8.2.000 -release  MAR 07, 2025 19:38:26

*RUN   1        : silt_loam_13in_irr        MZCER048 UNLI2201    1
 MODEL          : MZCER048 - Maize
 EXPERIMENT     : UNLI2201 MZ IRRIGATED MAIZE PRODUCTION
 DATA PATH      :
 TREATMENT  1   : silt_loam_13in_irr        MZCER048
  
@YEAR DOY   DAS   DAP   CNAD   GNAD   VNAD   GN%D   VN%D   NUPC   LNAD   SNAD   LN%D   SN%D   RN%D   SNN0C   SNN1C
 2022 129     9     0    0.0    0.0    0.0   0.00   0.00    0.0    0.0    0.0    0.0   0.00   0.00    0.00    0.00
 2022 130    10     1    0.0    0.0    0.0   0.00   0.00    0.0    0.0    0.0    0.0   0.00   0.00    0.00    0.00
 2022 131    11     2    0.0    0.0    0.0   0.00   0.00    0.0    0.0    0.0    0.0   0.00   0.00    0.00    0.00
 2022 132    12     3    0.0    0.0    0.0   0.00   0.00    0.0    0.0    0.0    0.0   0.00   0.00    0.00    0.00
 2022 133    13     4    0.0    0.0    0.0   0.00   0.00    0.0    0.0    0.0    0.0   0.00   0.00    0.00    0.00
 2022 134    14     5    0.0    0.0    0.0   0.00   0.00    0.0    0.0    0.0    0.0   0.00   0.00    0.00    0.00
 2022 135    15     6    0.0    0.0    0.0   0.00   0.00    0.0    0.0    0.0    0.0   0.00   0.00    0.00    0.00
 2022 136    16     7    0.0    0.0    0.0   0.00   0.00    0.0    0.0    0.0    0.0   0.00   0.00    0.00    0.00
 2022 137    17     8    1.4    0.0    1.4   0.00   4.40    0.0    0.7    0.7    4.4   4.40   2.19    0.00    0.00
 2022 138    18     9    1.4    0.0    1.4   0.00   4.40    0.0    0.7    0.7    4.4   4.40   2.10    0.00    0.00
 2022 139    19    10    1.4    0.0    1.4   0.00   4.40    0.0    0.7    0.7    4.4   4.40   1.97    0.00    0.00
 2022 140    20    11    1.4    0.0    1.4   0.00   4.40    0.0    0.7    0.7    4.4   4.40   1.95    0.00    0.00
 2022 141    21    12    1.4    0.0    1.4   0.00   4.40    0.0    0.7    0.7    4.4   4.40   1.91    0.00    0.00
 2022 142    22    13    1.4    0.0    1.4   0.00   4.40    0.0    0.7    0.7    4.4   4.40   1.86    0.00    0.00
 2022 143    23    14    1.4    0.0    1.4   0.00   4.40    0.0    0.7    0.7    4.4   4.40   1.87    0.00    0.00
 2022 144    24    15    1.4    0.0    1.4   0.00   4.40    0.0    0.7    0.7    4.4   4.40   1.87    0.00    0.00
 2022 145    25    16    1.4    0.0    1.4   0.00   4.40    0.0    0.7    0.7    4.4   4.40   1.85    0.00    0.00
 2022 146    26    17    1.4    0.0    1.4   0.00   4.40    0.0    0.7    0.7    4.4   4.40   1.78    0.00    0.00
 2022 147    27    18    1.4    0.0    1.4   0.00   4.40    0.0    0.7    0.7    4.4   4.40   1.67    0.00    0.00
 2022 148    28    19    1.4    0.0    1.4   0.00   4.40    0.0    0.7    0.7    4.4   4.40   1.53    0.00    0.00
 2022 149    29    20    1.4    0.0    1.4   0.00   4.40    0.0    0.7    0.7    4.4   4.40   1.29    0.00    0.00
 2022 150    30    21    1.4    0.0    1.4   0.00   4.02    0.0    0.8    0.6    4.0   4.02   1.12    0.00    0.00
 2022 151    31    22    1.5    0.0    1.5   0.00   3.80    0.1    0.9    0.6    3.8   3.80   1.20    0.00    0.00
 2022 152    32    23    1.6    0.0    1.6   0.00   3.77    0.4    1.0    0.6    3.8   3.77   1.26    0.00    0.00
 2022 153    33    24    1.8    0.0    1.8   0.00   3.69    0.7    1.2    0.6    3.7   3.69   1.27    0.00    0.01
 2022 154    34    25    1.9    0.0    1.9   0.00   3.56    1.0    1.4    0.6    3.6   3.56   1.26    0.00    0.01
 2022 155    35    26    2.2    0.0    2.2   0.00   3.35    1.5    1.7    0.5    3.4   3.35   1.25    0.00    0.01
 2022 156    36    27    2.6    0.0    2.6   0.00   3.36    2.0    2.1    0.5    3.4   3.36   1.20    0.00    0.02
 2022 157    37    28    2.8    0.0    2.8   0.00   3.03    2.4    2.4    0.5    3.0   3.03   1.10    0.00    0.02
 2022 158    38    29    3.2    0.0    3.2   0.00   3.02    2.7    2.7    0.5    3.0   3.02   1.07    0.00    0.03
 2022 159    39    30    3.3    0.0    3.3   0.00   2.80    3.1    2.9    0.4    2.8   2.80   0.93    0.00    0.04
 2022 160    40    31    3.5    0.0    3.5   0.00   2.80    3.4    3.1    0.4    2.8   2.80   0.87    0.00    0.04
 2022 161    41    32    3.7    0.0    3.7   0.00   2.57    3.6    3.3    0.4    2.6   2.57   0.79    0.00    0.05
 2022 162    42    33    3.8    0.0    3.8   0.00   2.26    3.9    3.4    0.4    2.3   2.26   0.72    0.00    0.06
 2022 163    43    34    3.9    0.0    3.9   0.00   2.04    4.1    3.6    0.3    2.0   2.04   0.66    0.00    0.07
 2022 164    44    35    4.2    0.0    4.2   0.00   1.89    4.5    3.9    0.3    1.9   1.89   0.62    0.00    0.08
 2022 165    45    36    4.5    0.0    4.5   0.00   1.84    4.9    4.2    0.3    1.8   1.84   0.59    0.00    0.09
 2022 166    46    37    4.7    0.0    4.7   0.00   1.80    5.3    4.4    0.3    1.8   1.80   0.56    0.00    0.10
 2022 167    47    38    5.0    0.0    5.0   0.00   1.76    5.7    4.7    0.3    1.8   1.76   0.53    0.00    0.11
 2022 168    48    39    5.2    0.0    5.2   0.00   1.66    6.1    4.9    0.3    1.7   1.66   0.51    0.00    0.12
 2022 169    49    40    5.4    0.0    5.4   0.00   1.54    6.4    5.1    0.3    1.5   1.54   0.49    0.00    0.14
 2022 170    50    41    5.6    0.0    5.6   0.00   1.44    6.7    5.3    0.3    1.4   1.44   0.48    0.00    0.15
 2022 171    51    42    5.8    0.0    5.8   0.00   1.38    7.0    5.5    0.3    1.4   1.38   0.48    0.00    0.16
 2022 172    52    43    6.0    0.0    6.0   0.00   1.37    7.4    5.7    0.3    1.4   1.37   0.48    0.00    0.18
 2022 173    53    44    6.3    0.0    6.3   0.00   1.36    7.8    5.9    0.4    1.4   1.36   0.47    0.00    0.19
 2022 174    54    45    6.5    0.0    6.5   0.00   1.31    8.1    6.1    0.4    1.3   1.31   0.46    0.00    0.21
 2022 175    55    46    6.7    0.0    6.7   0.00   1.27    8.5    6.3    0.5    1.3   1.27   0.46    0.00    0.22
 2022 176    56    47    7.0    0.0    7.0   0.00   1.25    8.8    6.4    0.5    1.3   1.25   0.46    0.00    0.24
 2022 177    57    48    7.2    0.0    7.2   0.00   1.25    9.1    6.6    0.6    1.3   1.25   0.45    0.00    0.26
 2022 178    58    49    7.3    0.0    7.3   0.00   1.23    9.4    6.7    0.7    1.2   1.23   0.44    0.00    0.27
 2022 179    59    50    7.5    0.0    7.5   0.00   1.20    9.7    6.8    0.7    1.2   1.20   0.44    0.00    0.29
 2022 180    60    51    7.7    0.0    7.7   0.00   1.15   10.0    6.9    0.9    1.1   1.15   0.43    0.00    0.31
 2022 181    61    52    8.0    0.0    8.0   0.00   1.11   10.3    7.0    1.0    1.1   1.11   0.44    0.00    0.33
 2022 182    62    53    8.2    0.0    8.2   0.00   1.08   10.7    7.1    1.1    1.1   1.08   0.44    0.00    0.35
 2022 183    63    54    8.7    0.0    8.7   0.00   1.10   11.3    7.4    1.3    1.1   1.10   0.45    0.00    0.37
 2022 184    64    55    8.9    0.0    8.9   0.00   1.06   11.8    7.5    1.5    1.1   1.06   0.45    0.00    0.39
 2022 185    65    56    9.3    0.0    9.3   0.00   1.03   12.2    7.6    1.7    1.0   1.03   0.45    0.00    0.41
 2022 186    66    57    9.7    0.0    9.7   0.00   1.01   12.7    7.7    2.0    1.0   1.01   0.46    0.00    0.43
 2022 187    67    58   10.0    0.0   10.0   0.00   1.00   13.3    7.9    2.2    1.0   1.00   0.47    0.00    0.45
 2022 188    68    59   10.4    0.0   10.4   0.00   0.96   13.8    7.9    2.5    1.0   0.96   0.48    0.00    0.47
 2022 189    69    60   10.8    0.0   10.8   0.00   0.92   14.3    7.9    2.9    0.9   0.92   0.49    0.00    0.50
 2022 190    70    61   11.2    0.0   11.2   0.00   0.89   14.8    7.9    3.4    0.9   0.89   0.49    0.00    0.52
 2022 191    71    62   11.7    0.0   11.7   0.00   0.86   15.4    7.9    3.8    0.9   0.86   0.50    0.00    0.54
 2022 192    72    63   12.1    0.0   12.1   0.00   0.86   15.9    8.0    4.1    0.9   0.86   0.50    0.00    0.57
 2022 193    73    64   12.5    0.0   12.5   0.00   0.86   16.4    8.1    4.4    0.9   0.86   0.50    0.00    0.59
 2022 194    74    65   12.9    0.0   12.9   0.00   0.85   17.0    8.2    4.8    0.9   0.85   0.50    0.00    0.62
 2022 195    75    66   13.3    0.0   13.3   0.00   0.84   17.5    8.2    5.2    0.8   0.84   0.50    0.00    0.64
 2022 196    76    67   13.7    0.0   13.7   0.00   0.83   18.0    8.3    5.5    0.8   0.83   0.51    0.00    0.67
 2022 197    77    68   14.1    0.0   14.1   0.00   0.83   18.5    8.3    5.8    0.8   0.83   0.51    0.00    0.70
 2022 198    78    69   14.5    0.0   14.5   0.00   0.83   19.0    8.4    6.1    0.8   0.83   0.51    0.00    0.72
 2022 199    79    70   14.9    0.0   14.9   0.00   0.83   19.4    8.6    6.3    0.8   0.83   0.52    0.00    0.75
 2022 200    80    71   15.2    0.0   15.2   0.00   0.83   19.9    8.8    6.4    0.8   0.83   0.51    0.00    0.78
 2022 201    81    72   15.5    0.0   15.5   0.00   0.84   20.3    9.0    6.6    0.8   0.84   0.51    0.00    0.81
 2022 202    82    73   15.9    0.0   15.9   0.00   0.85   20.8    9.2    6.7    0.9   0.85   0.52    0.00    0.84
 2022 203    83    74   16.3    0.0   16.3   0.00   0.84   21.3    8.9    7.4    0.8   0.84   0.53    0.00    0.87
 2022 204    84    75   16.7    0.0   16.7   0.00   0.84   21.8    8.8    7.9    0.8   0.84   0.53    0.00    0.89
 2022 205    85    76   17.1    0.0   17.1   0.00   0.83   22.2    8.6    8.5    0.8   0.83   0.54    0.00    0.92
 2022 206    86    77   17.4    0.0   17.4   0.00   0.85   22.6    8.6    8.8    0.8   0.85   0.55    0.00    0.95
 2022 207    87    78   17.7    0.0   17.7   0.00   0.85   23.0    8.5    9.2    0.9   0.85   0.56    0.00    0.99
 2022 208    88    79   18.0    0.0   18.0   0.00   0.86   23.4    8.4    9.6    0.9   0.86   0.56    0.00    1.02
 2022 209    89    80   18.3    0.0   18.3   0.00   0.86   23.9    8.2   10.1    0.9   0.86   0.57    0.00    1.05
 2022 210    90    81   18.6    0.0   18.6   0.00   0.87   24.2    8.1   10.5    0.9   0.87   0.58    0.00    1.08
 2022 211    91    82   18.9    0.0   18.9   0.00   0.87   24.6    7.9   11.0    0.9   0.87   0.58    0.00    1.11
 2022 212    92    83   19.2    0.0   19.2   0.00   0.87   25.0    7.7   11.5    0.9   0.87   0.59    0.00    1.14
 2022 213    93    84   19.5    0.0   19.5   0.00   0.87   25.4    7.5   12.0    0.9   0.87   0.60    0.00    1.17
 2022 214    94    85   19.8    0.5   19.3   0.83   0.86   25.8    7.4   11.9    0.9   0.86   0.60    0.00    1.21
 2022 215    95    86   20.1    0.8   19.3   0.82   0.86   26.2    7.4   11.9    0.9   0.86   0.60    0.00    1.24
 2022 216    96    87   20.4    1.0   19.4   0.81   0.86   26.6    7.4   12.0    0.9   0.86   0.61    0.00    1.27
 2022 217    97    88   20.7    1.2   19.5   0.81   0.87   27.0    7.5   12.0    0.9   0.87   0.61    0.00    1.30
 2022 218    98    89   21.0    1.4   19.5   0.81   0.87   27.3    7.5   12.1    0.9   0.87   0.61    0.00    1.34
 2022 219    99    90   21.2    1.7   19.6   0.81   0.87   27.7    7.5   12.1    0.9   0.87   0.62    0.00    1.37
 2022 220   100    91   21.5    1.9   19.6   0.82   0.87   28.1    7.5   12.1    0.9   0.87   0.62    0.00    1.41
 2022 221   101    92   21.7    2.2   19.6   0.82   0.87   28.4    7.5   12.1    0.9   0.87   0.62    0.00    1.44
 2022 222   102    93   22.0    2.4   19.5   0.82   0.87   28.7    7.5   12.1    0.9   0.87   0.63    0.00    1.48
 2022 223   103    94   22.2    2.7   19.5   0.83   0.87   29.0    7.4   12.0    0.9   0.87   0.63    0.00    1.51
 2022 224   104    95   22.4    3.0   19.4   0.83   0.87   29.3    7.4   12.0    0.9   0.87   0.63    0.00    1.55
 2022 225   105    96   22.6    3.2   19.4   0.84   0.86   29.6    7.4   12.0    0.9   0.86   0.64    0.00    1.58
 2022 226   106    97   22.8    3.5   19.3   0.84   0.86   30.0    7.4   11.9    0.9   0.86   0.64    0.00    1.62
 2022 227   107    98   23.1    3.8   19.3   0.84   0.86   30.4    7.4   11.9    0.9   0.86   0.65    0.00    1.66
 2022 228   108    99   23.4    4.0   19.3   0.85   0.87   30.8    7.4   11.9    0.9   0.87   0.66    0.00    1.69
 2022 229   109   100   23.6    4.3   19.3   0.85   0.86   31.2    7.4   11.9    0.9   0.86   0.67    0.00    1.73
 2022 230   110   101   23.9    4.6   19.3   0.86   0.86   31.5    7.4   11.9    0.9   0.86   0.68    0.00    1.77
 2022 231   111   102   24.1    4.9   19.2   0.86   0.86   31.9    7.4   11.9    0.9   0.86   0.68    0.00    1.81
 2022 232   112   103   24.3    5.2   19.2   0.86   0.85   32.2    7.3   11.8    0.9   0.85   0.69    0.00    1.84
 2022 233   113   104   24.5    5.4   19.1   0.87   0.85   32.5    7.3   11.8    0.8   0.85   0.69    0.00    1.88
 2022 234   114   105   24.7    5.7   19.0   0.87   0.85   32.8    7.3   11.7    0.8   0.85   0.70    0.00    1.92
 2022 235   115   106   24.9    6.0   18.9   0.87   0.84   33.1    7.2   11.7    0.8   0.84   0.70    0.00    1.96
 2022 236   116   107   25.1    6.3   18.8   0.88   0.84   33.4    7.2   11.6    0.8   0.84   0.71    0.00    2.00
 2022 237   117   108   25.3    6.6   18.7   0.88   0.83   33.7    7.1   11.5    0.8   0.83   0.72    0.00    2.04
 2022 238   118   109   25.5    6.9   18.5   0.89   0.83   33.9    7.1   11.4    0.8   0.83   0.72    0.00    2.08
 2022 239   119   110   25.6    7.2   18.4   0.89   0.82   34.2    7.0   11.4    0.8   0.82   0.73    0.00    2.12
 2022 240   120   111   25.8    7.5   18.3   0.89   0.81   34.5    7.0   11.3    0.8   0.81   0.74    0.00    2.16
 2022 241   121   112   26.0    7.8   18.1   0.90   0.81   34.8    6.9   11.2    0.8   0.81   0.74    0.00    2.21
 2022 242   122   113   26.1    8.1   18.0   0.90   0.80   35.0    6.9   11.1    0.8   0.80   0.75    0.00    2.25
 2022 243   123   114   26.3    8.4   17.9   0.90   0.80   35.3    6.8   11.0    0.8   0.80   0.76    0.00    2.29
 2022 244   124   115   26.5    8.7   17.7   0.91   0.79   35.6    6.8   11.0    0.8   0.79   0.77    0.00    2.33
 2022 245   125   116   26.6    9.0   17.6   0.91   0.78   35.8    6.7   10.9    0.8   0.78   0.77    0.00    2.37
 2022 246   126   117   26.8    9.3   17.4   0.91   0.78   36.1    6.7   10.8    0.8   0.78   0.78    0.00    2.42
 2022 247   127   118   26.9    9.6   17.3   0.92   0.77   36.3    6.6   10.7    0.8   0.77   0.79    0.00    2.46
 2022 248   128   119   27.1    9.9   17.1   0.92   0.76   36.6    6.6   10.6    0.8   0.76   0.80    0.00    2.50
 2022 249   129   120   27.2   10.3   17.0   0.92   0.76   36.8    6.5   10.5    0.8   0.76   0.80    0.00    2.55
 2022 250   130   121   27.4   10.6   16.8   0.92   0.75   37.1    6.4   10.4    0.7   0.75   0.81    0.00    2.59
 2022 251   131   122   27.5   10.8   16.7   0.93   0.74   37.3    6.4   10.3    0.7   0.74   0.82    0.00    2.64
 2022 252   132   123   27.7   11.1   16.5   0.93   0.74   37.6    6.4   10.2    0.7   0.74   0.83    0.00    2.68
 2022 253   133   124   28.0   11.4   16.6   0.93   0.75   38.0    6.4   10.2    0.7   0.75   0.84    0.00    2.73
 2022 254   134   125   28.2   11.6   16.6   0.93   0.74   38.4    6.4   10.2    0.7   0.74   0.85    0.00    2.77
 2022 255   135   126   28.3   11.9   16.4   0.93   0.74   38.6    6.3   10.1    0.7   0.74   0.86    0.00    2.82
 2022 256   136   127   28.5   12.2   16.3   0.94   0.73   38.9    6.3   10.0    0.7   0.73   0.87    0.00    2.86
 2022 257   137   128   28.6   12.6   16.1   0.94   0.73   39.1    6.2    9.8    0.7   0.73   0.88    0.00    2.91
 2022 258   138   129   28.8   12.9   15.9   0.94   0.72   39.3    6.2    9.7    0.7   0.72   0.89    0.00    2.96
 2022 259   139   130   29.0   13.2   15.8   0.94   0.72   39.6    6.2    9.6    0.7   0.72   0.90    0.00    3.00
 2022 260   140   131   29.0   13.2   15.8   0.94   0.72   39.6    6.2    9.6    0.7   0.72   0.90    0.00    3.00
 2022 261   141   132   29.0   13.2   15.8   0.94   0.72   39.6    6.2    9.6    0.7   0.72   0.90    0.00    3.00
 2022 262   142   133   29.0   13.2   15.8   0.94   0.72   39.6    6.2    9.6    0.7   0.72   0.90    0.00    3.00
 2022 263   143   134   29.0   13.2   15.8   0.94   0.72   39.6    6.2    9.6    0.7   0.72   0.90    0.00    3.00
