*N2O emissions output file

*DSSAT Cropping System Model Ver. 4.8.2.000 -release  MAR 07, 2025 19:38:26

*RUN   1        : silt_loam_13in_irr        MZCER048 UNLI2201    1
 MODEL          : MZCER048 - Maize
 EXPERIMENT     : UNLI2201 MZ IRRIGATED MAIZE PRODUCTION
 DATA PATH      :
 TREATMENT  1   : silt_loam_13in_irr        MZCER048
  
!              |------------------------------ Cumulative -----------------------------|------------------------------ Daily ----------------------------------|
!               N2Oemit  N2emit  NOemit   Denit  Nitrif   N2O-denit+nit      N2      NO N2Oemit  N2emit  NOemit   Denit  Nitrif   N2O-denit+nit      N2      NO   Denitrification (g[N]/ha) by soil depth (cm):                                   Nitrification (g[N]/ha) by soil depth (cm):                                     N2O flux (g[N]/ha) by soil depth (cm):                                          N2 flux (g[N]/ha) by soil depth (cm):                                           NO flux (g[N]/ha) by soil depth (cm):
!                 kg/ha   kg/ha   kg/ha   kg/ha   kg/ha   kg/ha   kg/ha   kg/ha   kg/ha    g/ha    g/ha    g/ha    g/ha    g/ha    g/ha    g/ha    g/ha    g/ha     0-5    5-15   15-23   23-38   38-53   53-61   61-69   69-84   84-99  99-160     0-5    5-15   15-23   23-38   38-53   53-61   61-69   69-84   84-99  99-160     0-5    5-15   15-23   23-38   38-53   53-61   61-69   69-84   84-99  99-160     0-5    5-15   15-23   23-38   38-53   53-61   61-69   69-84   84-99  99-160     0-5    5-15   15-23   23-38   38-53   53-61   61-69   69-84   84-99  99-160
@YEAR DOY   DAS   N2OEC    N2EC    NOEC    NDNC    NITC   N2ODC   N2ONC   N2FLC   NOFLC  N2OGED   N2GED   NOGED    NDND   NITRD   N2ODD   N2OND   N2FLD   NOFLD   NDN1D   NDN2D   NDN3D   NDN4D   NDN5D   NDN6D   NDN7D   NDN8D   NDN9D   NDN10   NIT1D   NIT2D   NIT3D   NIT4D   NIT5D   NIT6D   NIT7D   NIT8D   NIT9D   NIT10   N2O1D   N2O2D   N2O3D   N2O4D   N2O5D   N2O6D   N2O7D   N2O8D   N2O9D   N2O10   N2F1D   N2F2D   N2F3D   N2F4D   N2F5D   N2F6D   N2F7D   N2F8D   N2F9D   N2F10   NOF1D   NOF2D   NOF3D   NOF4D   NOF5D   NOF6D   NOF7D   NOF8D   NOF9D   NOF10
 2022 121     1    0.00    0.00    0.00    0.00     0.0   0.000   0.000   0.000   0.000     0.0     0.0     0.0     0.0       0    0.00    0.00    0.00    0.00     0.0     0.0     0.0     0.0     0.0     0.0     0.0     0.0     0.0     0.0      0.      0.      0.      0.      0.      0.      0.      0.      0.      0.     0.0     0.0     0.0     0.0     0.0     0.0     0.0     0.0     0.0     0.0     0.0     0.0     0.0     0.0     0.0     0.0     0.0     0.0     0.0     0.0     0.0     0.0     0.0     0.0     0.0     0.0     0.0     0.0     0.0     0.0
 2022 122     2    0.00    0.00    0.00    0.00     0.0   0.000   0.000   0.000   0.000     0.0     0.0     0.0     0.0      14    0.00    0.01    0.00    0.30     0.0     0.0     0.0     0.0     0.0     0.0     0.0     0.0     0.0     0.0      2.      3.      2.      2.      1.      1.      1.      1.      1.      0.     0.0     0.0     0.0     0.0     0.0     0.0     0.0     0.0     0.0     0.0     0.0     0.0     0.0     0.0     0.0     0.0     0.0     0.0     0.0     0.0     0.0     0.0     0.0     0.0     0.0     0.0     0.0     0.0     0.0     0.0
 2022 123     3    0.00    0.00    0.00    0.00     0.0   0.000   0.000   0.000   0.001     0.0     0.0     0.0     0.0      22    0.00    0.02    0.00    0.26     0.0     0.0     0.0     0.0     0.0     0.0     0.0     0.0     0.0     0.0      2.      4.      3.      3.      3.      1.      1.      2.      1.      1.     0.0     0.0     0.0     0.0     0.0     0.0     0.0     0.0     0.0     0.0     0.0     0.0     0.0     0.0     0.0     0.0     0.0     0.0     0.0     0.0     0.0     0.0     0.0     0.0     0.0     0.0     0.0     0.0     0.0     0.0
 2022 124     4    0.00    0.00    0.00    0.00     0.1   0.000   0.000   0.000   0.001     0.0     0.0     0.0     0.0      28    0.00    0.03    0.00    0.26     0.0     0.0     0.0     0.0     0.0     0.0     0.0     0.0     0.0     0.0      3.      5.      3.      4.      3.      1.      1.      2.      2.      1.     0.0     0.0     0.0     0.0     0.0     0.0     0.0     0.0     0.0     0.0     0.0     0.0     0.0     0.0     0.0     0.0     0.0     0.0     0.0     0.0     0.0     0.0     0.0     0.0     0.0     0.0     0.0     0.0     0.0     0.0
 2022 125     5    0.00    0.00    0.00    0.00     0.1   0.000   0.000   0.000   0.001     0.0     0.0     0.0     0.0      28    0.00    0.03    0.00    0.19     0.0     0.0     0.0     0.0     0.0     0.0     0.0     0.0     0.0     0.0      3.      6.      4.      4.      3.      1.      1.      2.      1.      1.     0.0     0.0     0.0     0.0     0.0     0.0     0.0     0.0     0.0     0.0     0.0     0.0     0.0     0.0     0.0     0.0     0.0     0.0     0.0     0.0     0.0     0.0     0.0     0.0     0.0     0.0     0.0     0.0     0.0     0.0
 2022 126     6    0.00    0.00    0.00    0.00     0.1   0.000   0.000   0.000   0.001     0.0     0.0     0.0     0.0      28    0.00    0.03    0.00    0.14     0.0     0.0     0.0     0.0     0.0     0.0     0.0     0.0     0.0     0.0      4.      6.      4.      4.      3.      1.      1.      2.      1.      1.     0.0     0.0     0.0     0.0     0.0     0.0     0.0     0.0     0.0     0.0     0.0     0.0     0.0     0.0     0.0     0.0     0.0     0.0     0.0     0.0     0.0     0.0     0.0     0.0     0.0     0.0     0.0     0.0     0.0     0.0
 2022 127     7    0.00    0.00    0.00    0.00     0.1   0.000   0.000   0.000   0.001     0.0     0.0     0.0     0.0      30    0.00    0.03    0.00    0.17     0.0     0.0     0.0     0.0     0.0     0.0     0.0     0.0     0.0     0.0      4.      6.      4.      5.      3.      1.      1.      2.      1.      1.     0.0     0.0     0.0     0.0     0.0     0.0     0.0     0.0     0.0     0.0     0.0     0.0     0.0     0.0     0.0     0.0     0.0     0.0     0.0     0.0     0.0     0.0     0.0     0.0     0.0     0.0     0.0     0.0     0.0     0.0
 2022 128     8    0.00    0.00    0.00    0.00     0.2   0.000   0.000   0.000   0.001     0.0     0.0     0.0     0.0      38    0.00    0.04    0.00    0.14     0.0     0.0     0.0     0.0     0.0     0.0     0.0     0.0     0.0     0.0      5.      9.      5.      6.      4.      2.      1.      2.      1.      1.     0.0     0.0     0.0     0.0     0.0     0.0     0.0     0.0     0.0     0.0     0.0     0.0     0.0     0.0     0.0     0.0     0.0     0.0     0.0     0.0     0.0     0.0     0.0     0.0     0.0     0.0     0.0     0.0     0.0     0.0
 2022 129     9    0.00    0.00    0.00    0.00     0.2   0.000   0.000   0.000   0.002     0.0     0.0     0.0     0.0      62    0.00    0.06    0.03    0.28     0.0     0.0     0.0     0.0     0.0     0.0     0.0     0.0     0.0     0.0      9.     13.      8.     10.      6.      3.      2.      4.      3.      1.     0.0     0.0     0.0     0.0     0.0     0.0     0.0     0.0     0.0     0.0     0.0     0.0     0.0     0.0     0.0     0.0     0.0     0.0     0.0     0.0     0.0     0.0     0.0     0.0     0.0     0.0     0.0     0.0     0.0     0.0
 2022 130    10    0.00    0.00    0.00    0.00     0.3   0.000   0.000   0.000   0.002     0.0     0.0     0.1     0.0      98    0.00    0.10    0.00    0.56     0.0     0.0     0.0     0.0     0.0     0.0     0.0     0.0     0.0     0.0     12.     19.     12.     15.     10.      5.      4.      7.      5.      3.     0.0     0.0     0.0     0.0     0.0     0.0     0.0     0.0     0.0     0.0     0.0     0.0     0.0     0.0     0.0     0.0     0.0     0.0     0.0     0.0     0.1     0.1     0.0     0.1     0.1     0.0     0.0     0.1     0.0     0.0
 2022 131    11    0.00    0.00    0.00    0.00     0.5   0.000   0.000   0.000   0.003     0.0     0.0     0.1     0.0     140    0.00    0.14    0.00    0.81     0.0     0.0     0.0     0.0     0.0     0.0     0.0     0.0     0.0     0.0     16.     26.     17.     20.     15.      6.      6.     12.      8.      5.     0.0     0.0     0.0     0.0     0.0     0.0     0.0     0.0     0.0     0.0     0.0     0.0     0.0     0.0     0.0     0.0     0.0     0.0     0.0     0.0     0.1     0.1     0.1     0.1     0.1     0.0     0.0     0.1     0.1     0.0
 2022 132    12    0.00    0.00    0.00    0.00     0.7   0.000   0.001   0.000   0.004     0.0     0.0     0.2     0.0     191    0.00    0.19    0.00    1.11     0.0     0.0     0.0     0.0     0.0     0.0     0.0     0.0     0.0     0.0     20.     34.     23.     27.     20.      9.      8.     17.     12.      7.     0.0     0.0     0.0     0.0     0.0     0.0     0.0     0.0     0.0     0.0     0.0     0.0     0.0     0.0     0.0     0.0     0.0     0.0     0.0     0.0     0.1     0.2     0.1     0.1     0.1     0.1     0.1     0.1     0.1     0.1
 2022 133    13    0.00    0.00    0.00    0.00     0.9   0.000   0.001   0.000   0.006     0.0     0.0     0.2     0.0     238    0.00    0.24    0.00    1.39     0.0     0.0     0.0     0.0     0.0     0.0     0.0     0.0     0.0     0.0     22.     41.     27.     34.     25.     11.     10.     21.     16.     10.     0.0     0.0     0.0     0.0     0.0     0.0     0.0     0.0     0.0     0.0     0.0     0.0     0.0     0.0     0.0     0.0     0.0     0.0     0.0     0.0     0.2     0.2     0.1     0.2     0.2     0.1     0.1     0.1     0.1     0.1
 2022 134    14    0.00    0.00    0.00    0.00     1.2   0.000   0.001   0.000   0.007     0.0     0.0     0.3     0.0     260    0.00    0.26    0.00    1.52     0.0     0.0     0.0     0.0     0.0     0.0     0.0     0.0     0.0     0.0     22.     44.     29.     37.     27.     13.     12.     24.     18.     11.     0.0     0.0     0.0     0.0     0.0     0.0     0.0     0.0     0.0     0.0     0.0     0.0     0.0     0.0     0.0     0.0     0.0     0.0     0.0     0.0     0.2     0.2     0.1     0.2     0.2     0.1     0.1     0.2     0.1     0.1
 2022 135    15    0.00    0.00    0.00    0.00     1.5   0.000   0.001   0.000   0.009     0.1     0.0     0.3     0.0     278    0.00    0.28    0.00    1.63     0.0     0.0     0.0     0.0     0.0     0.0     0.0     0.0     0.0     0.0     22.     46.     31.     39.     29.     14.     13.     26.     20.     13.     0.0     0.0     0.0     0.0     0.0     0.0     0.0     0.0     0.0     0.0     0.0     0.0     0.0     0.0     0.0     0.0     0.0     0.0     0.0     0.0     0.2     0.2     0.1     0.2     0.2     0.1     0.1     0.2     0.1     0.1
 2022 136    16    0.00    0.00    0.00    0.00     1.8   0.000   0.002   0.000   0.011     0.1     0.0     0.4     0.0     301    0.00    0.30    0.00    1.77     0.0     0.0     0.0     0.0     0.0     0.0     0.0     0.0     0.0     0.0     26.     48.     33.     42.     31.     15.     14.     28.     22.     14.     0.0     0.0     0.0     0.0     0.0     0.0     0.0     0.0     0.0     0.0     0.0     0.0     0.0     0.0     0.0     0.0     0.0     0.0     0.0     0.0     0.2     0.2     0.1     0.2     0.2     0.1     0.1     0.2     0.2     0.1
 2022 137    17    0.00    0.00    0.00    0.00     2.1   0.000   0.002   0.000   0.012     0.1     0.0     0.4     0.0     298    0.00    0.30    0.00    1.76     0.0     0.0     0.0     0.0     0.0     0.0     0.0     0.0     0.0     0.0     24.     47.     32.     41.     31.     15.     14.     29.     22.     14.     0.0     0.0     0.0     0.0     0.0     0.0     0.0     0.0     0.0     0.0     0.0     0.0     0.0     0.0     0.0     0.0     0.0     0.0     0.0     0.0     0.2     0.2     0.1     0.2     0.2     0.1     0.1     0.2     0.2     0.1
 2022 138    18    0.00    0.00    0.00    0.00     2.4   0.000   0.002   0.000   0.014     0.1     0.0     0.4     0.0     308    0.00    0.31    0.00    1.82     0.0     0.0     0.0     0.0     0.0     0.0     0.0     0.0     0.0     0.0     24.     48.     33.     43.     32.     15.     14.     30.     23.     15.     0.0     0.0     0.0     0.0     0.0     0.0     0.0     0.0     0.0     0.0     0.0     0.0     0.0     0.0     0.0     0.0     0.0     0.0     0.0     0.0     0.2     0.2     0.1     0.2     0.2     0.1     0.1     0.2     0.2     0.1
 2022 139    19    0.00    0.00    0.00    0.00     2.7   0.000   0.003   0.000   0.016     0.1     0.0     0.5     0.0     335    0.00    0.34    0.00    1.98     0.0     0.0     0.0     0.0     0.0     0.0     0.0     0.0     0.0     0.0     24.     53.     36.     47.     35.     17.     16.     32.     26.     16.     0.0     0.1     0.0     0.0     0.0     0.0     0.0     0.0     0.0     0.0     0.0     0.0     0.0     0.0     0.0     0.0     0.0     0.0     0.0     0.0     0.2     0.3     0.1     0.2     0.2     0.1     0.1     0.2     0.2     0.1
 2022 140    20    0.00    0.00    0.00    0.00     3.1   0.000   0.003   0.000   0.018     0.1     0.0     0.6     0.0     366    0.00    0.37    0.00    2.16     0.0     0.0     0.0     0.0     0.0     0.0     0.0     0.0     0.0     0.0     25.     58.     40.     51.     38.     18.     17.     35.     28.     18.     0.0     0.1     0.0     0.1     0.0     0.0     0.0     0.0     0.0     0.0     0.0     0.0     0.0     0.0     0.0     0.0     0.0     0.0     0.0     0.0     0.2     0.3     0.1     0.2     0.3     0.1     0.1     0.2     0.2     0.1
 2022 141    21    0.00    0.00    0.00    0.00     3.4   0.000   0.003   0.000   0.020     0.1     0.0     0.6     0.0     343    0.00    0.34    0.00    2.03     0.0     0.0     0.0     0.0     0.0     0.0     0.0     0.0     0.0     0.0     22.     53.     37.     48.     36.     17.     16.     34.     27.     17.     0.0     0.1     0.0     0.0     0.0     0.0     0.0     0.0     0.0     0.0     0.0     0.0     0.0     0.0     0.0     0.0     0.0     0.0     0.0     0.0     0.2     0.3     0.1     0.2     0.2     0.1     0.1     0.2     0.2     0.1
 2022 142    22    0.00    0.00    0.00    0.00     3.7   0.000   0.004   0.000   0.022     0.1     0.0     0.6     0.0     298    0.00    0.30    0.00    1.76     0.0     0.0     0.0     0.0     0.0     0.0     0.0     0.0     0.0     0.0     18.     45.     31.     41.     31.     15.     14.     30.     24.     15.     0.0     0.0     0.0     0.0     0.0     0.0     0.0     0.0     0.0     0.0     0.0     0.0     0.0     0.0     0.0     0.0     0.0     0.0     0.0     0.0     0.1     0.2     0.1     0.2     0.2     0.1     0.1     0.2     0.2     0.1
 2022 143    23    0.00    0.00    0.01    0.00     3.9   0.000   0.004   0.000   0.023     0.1     0.0     0.7     0.0     244    0.00    0.24    0.00    1.45     0.0     0.0     0.0     0.0     0.0     0.0     0.0     0.0     0.0     0.0     14.     36.     25.     33.     25.     13.     12.     25.     20.     13.     0.0     0.0     0.0     0.0     0.0     0.0     0.0     0.0     0.0     0.0     0.0     0.0     0.0     0.0     0.0     0.0     0.0     0.0     0.0     0.0     0.1     0.2     0.1     0.2     0.2     0.1     0.1     0.2     0.1     0.1
 2022 144    24    0.00    0.00    0.01    0.00     4.2   0.000   0.004   0.000   0.025     0.1     0.0     0.4     0.0     221    0.00    0.22    0.00    1.22     0.0     0.0     0.0     0.0     0.0     0.0     0.0     0.0     0.0     0.0     26.     30.     21.     28.     21.     11.     10.     21.     17.     11.     0.0     0.0     0.0     0.0     0.0     0.0     0.0     0.0     0.0     0.0     0.0     0.0     0.0     0.0     0.0     0.0     0.0     0.0     0.0     0.0     0.1     0.2     0.1     0.1     0.1     0.1     0.1     0.1     0.1     0.1
 2022 145    25    0.00    0.00    0.01    0.00     4.3   0.000   0.004   0.000   0.026     0.1     0.0     0.4     0.0     183    0.00    0.18    0.00    1.00     0.0     0.0     0.0     0.0     0.0     0.0     0.0     0.0     0.0     0.0     21.     25.     17.     23.     18.      9.      9.     17.     14.      9.     0.0     0.0     0.0     0.0     0.0     0.0     0.0     0.0     0.0     0.0     0.0     0.0     0.0     0.0     0.0     0.0     0.0     0.0     0.0     0.0     0.1     0.1     0.1     0.1     0.1     0.1     0.1     0.1     0.1     0.1
 2022 146    26    0.00    0.00    0.01    0.00     4.5   0.000   0.005   0.000   0.027     0.2     0.0     0.8     0.0     181    0.00    0.18    0.00    1.08     0.0     0.0     0.0     0.0     0.0     0.0     0.0     0.0     0.0     0.0     21.     25.     18.     24.     17.      9.      8.     17.     14.      9.     0.0     0.0     0.0     0.0     0.0     0.0     0.0     0.0     0.0     0.0     0.0     0.0     0.0     0.0     0.0     0.0     0.0     0.0     0.0     0.0     0.1     0.1     0.1     0.1     0.1     0.1     0.1     0.1     0.1     0.1
 2022 147    27    0.00    0.00    0.01    0.00     4.7   0.000   0.005   0.000   0.028     0.2     0.0     0.8     0.0     194    0.00    0.19    0.00    1.16     0.0     0.0     0.0     0.0     0.0     0.0     0.0     0.0     0.0     0.0     23.     28.     20.     26.     18.      9.      9.     18.     14.      9.     0.0     0.0     0.0     0.0     0.0     0.0     0.0     0.0     0.0     0.0     0.0     0.0     0.0     0.0     0.0     0.0     0.0     0.0     0.0     0.0     0.2     0.1     0.1     0.1     0.1     0.1     0.1     0.1     0.1     0.1
 2022 148    28    0.00    0.00    0.01    0.00     4.9   0.000   0.005   0.000   0.029     0.2     0.0     0.9     0.0     225    0.00    0.22    0.00    1.33     0.0     0.0     0.0     0.0     0.0     0.0     0.0     0.0     0.0     0.0     25.     34.     24.     31.     22.     11.     10.     20.     16.     10.     0.0     0.0     0.0     0.0     0.0     0.0     0.0     0.0     0.0     0.0     0.0     0.0     0.0     0.0     0.0     0.0     0.0     0.0     0.0     0.0     0.2     0.2     0.1     0.1     0.1     0.1     0.1     0.1     0.1     0.1
 2022 149    29    0.00    0.00    0.01    0.00     5.2   0.000   0.005   0.000   0.031     0.2     0.0     0.9     0.0     263    0.00    0.26    0.00    1.56     0.0     0.0     0.0     0.0     0.0     0.0     0.0     0.0     0.0     0.0     27.     41.     28.     37.     26.     13.     12.     24.     19.     12.     0.0     0.0     0.0     0.0     0.0     0.0     0.0     0.0     0.0     0.0     0.0     0.0     0.0     0.0     0.0     0.0     0.0     0.0     0.0     0.0     0.2     0.2     0.1     0.2     0.2     0.1     0.1     0.2     0.1     0.1
 2022 150    30    0.00    0.00    0.01    0.00     5.5   0.000   0.006   0.000   0.033     0.2     0.0     0.9     0.0     317    0.00    0.32    0.00    1.87     0.0     0.0     0.0     0.0     0.0     0.0     0.0     0.0     0.0     0.0     30.     51.     35.     45.     32.     16.     15.     29.     23.     14.     0.0     0.1     0.0     0.0     0.0     0.0     0.0     0.0     0.0     0.0     0.0     0.0     0.0     0.0     0.0     0.0     0.0     0.0     0.0     0.0     0.2     0.3     0.1     0.2     0.2     0.1     0.1     0.2     0.2     0.1
 2022 151    31    0.00    0.00    0.01    0.00     5.9   0.000   0.006   0.000   0.035     0.1     0.0     0.8     0.0     347    0.00    0.35    0.00    2.00     0.0     0.0     0.0     0.0     0.0     0.0     0.0     0.0     0.0     0.0     39.     53.     37.     47.     34.     17.     16.     31.     25.     16.     0.0     0.1     0.0     0.0     0.0     0.0     0.0     0.0     0.0     0.0     0.0     0.0     0.0     0.0     0.0     0.0     0.0     0.0     0.0     0.0     0.2     0.3     0.1     0.2     0.2     0.1     0.1     0.2     0.2     0.1
 2022 152    32    0.00    0.00    0.01    0.00     6.2   0.000   0.006   0.000   0.037     0.2     0.0     1.1     0.0     352    0.00    0.35    0.00    2.09     0.0     0.0     0.0     0.0     0.0     0.0     0.0     0.0     0.0     0.0     37.     53.     37.     48.     35.     17.     16.     32.     26.     16.     0.0     0.1     0.0     0.0     0.0     0.0     0.0     0.0     0.0     0.0     0.0     0.0     0.0     0.0     0.0     0.0     0.0     0.0     0.0     0.0     0.3     0.3     0.1     0.2     0.2     0.1     0.1     0.2     0.2     0.1
 2022 153    33    0.00    0.00    0.01    0.00     6.6   0.000   0.007   0.000   0.039     0.2     0.0     1.1     0.0     335    0.00    0.33    0.00    1.99     0.0     0.0     0.0     0.0     0.0     0.0     0.0     0.0     0.0     0.0     33.     50.     35.     45.     33.     16.     15.     32.     25.     16.     0.0     0.0     0.0     0.0     0.0     0.0     0.0     0.0     0.0     0.0     0.0     0.0     0.0     0.0     0.0     0.0     0.0     0.0     0.0     0.0     0.2     0.3     0.1     0.2     0.2     0.1     0.1     0.2     0.2     0.1
 2022 154    34    0.00    0.00    0.01    0.00     6.9   0.000   0.007   0.000   0.041     0.2     0.0     1.1     0.0     311    0.00    0.31    0.00    1.85     0.0     0.0     0.0     0.0     0.0     0.0     0.0     0.0     0.0     0.0     28.     46.     32.     42.     31.     15.     15.     30.     24.     15.     0.0     0.0     0.0     0.0     0.0     0.0     0.0     0.0     0.0     0.0     0.0     0.0     0.0     0.0     0.0     0.0     0.0     0.0     0.0     0.0     0.2     0.2     0.1     0.2     0.2     0.1     0.1     0.2     0.2     0.1
 2022 155    35    0.00    0.00    0.02    0.00     7.2   0.000   0.007   0.000   0.042     0.2     0.0     1.2     0.0     291    0.00    0.29    0.00    1.73     0.0     0.0     0.0     0.0     0.0     0.0     0.0     0.0     0.0     0.0     23.     43.     30.     40.     29.     15.     14.     28.     23.     15.     0.0     0.0     0.0     0.0     0.0     0.0     0.0     0.0     0.0     0.0     0.0     0.0     0.0     0.0     0.0     0.0     0.0     0.0     0.0     0.0     0.2     0.2     0.1     0.2     0.2     0.1     0.1     0.2     0.2     0.1
 2022 156    36    0.00    0.00    0.02    0.00     7.5   0.000   0.007   0.000   0.044     0.2     0.0     1.2     0.0     314    0.00    0.31    0.00    1.86     0.0     0.0     0.0     0.0     0.0     0.0     0.0     0.0     0.0     0.0     23.     47.     33.     43.     32.     16.     15.     31.     25.     16.     0.0     0.0     0.0     0.0     0.0     0.0     0.0     0.0     0.0     0.0     0.0     0.0     0.0     0.0     0.0     0.0     0.0     0.0     0.0     0.0     0.2     0.2     0.1     0.2     0.2     0.1     0.1     0.2     0.2     0.1
 2022 157    37    0.00    0.00    0.02    0.00     7.8   0.000   0.008   0.000   0.046     0.2     0.0     1.2     0.0     343    0.00    0.34    0.00    2.03     0.0     0.0     0.0     0.0     0.0     0.0     0.0     0.0     0.0     0.0     22.     52.     36.     48.     35.     17.     17.     34.     27.     17.     0.0     0.1     0.0     0.0     0.0     0.0     0.0     0.0     0.0     0.0     0.0     0.0     0.0     0.0     0.0     0.0     0.0     0.0     0.0     0.0     0.2     0.3     0.1     0.2     0.2     0.1     0.1     0.2     0.2     0.1
 2022 158    38    0.00    0.00    0.02    0.00     8.2   0.000   0.008   0.000   0.049     0.2     0.0     1.2     0.0     385    0.00    0.39    0.00    2.28     0.0     0.0     0.0     0.0     0.0     0.0     0.0     0.0     0.0     0.0     27.     59.     41.     54.     40.     20.     18.     37.     30.     19.     0.0     0.1     0.0     0.1     0.0     0.0     0.0     0.0     0.0     0.0     0.0     0.0     0.0     0.0     0.0     0.0     0.0     0.0     0.0     0.0     0.2     0.3     0.1     0.3     0.3     0.1     0.1     0.3     0.2     0.1
 2022 159    39    0.00    0.00    0.02    0.00     8.6   0.000   0.009   0.000   0.051     0.1     0.0     0.5     0.0     417    0.00    0.42    0.00    2.23     0.0     0.0     0.0     0.0     0.0     0.0     0.0     0.0     0.0     0.0     39.     62.     43.     56.     42.     21.     19.     39.     32.     20.     0.0     0.1     0.0     0.1     0.0     0.0     0.0     0.0     0.0     0.0     0.0     0.0     0.0     0.0     0.0     0.0     0.0     0.0     0.0     0.0     0.0     0.3     0.1     0.3     0.3     0.2     0.1     0.3     0.2     0.1
 2022 160    40    0.00    0.00    0.02    0.00     9.1   0.000   0.009   0.000   0.053     0.2     0.0     1.2     0.0     429    0.00    0.43    0.00    2.51     0.0     0.0     0.0     0.0     0.0     0.0     0.0     0.0     0.0     0.0     39.     63.     44.     58.     42.     21.     20.     41.     33.     21.     0.0     0.1     0.0     0.1     0.0     0.0     0.0     0.0     0.0     0.0     0.0     0.0     0.0     0.0     0.0     0.0     0.0     0.0     0.0     0.0     0.2     0.3     0.1     0.3     0.3     0.2     0.1     0.3     0.2     0.1
 2022 161    41    0.00    0.00    0.02    0.00     9.5   0.000   0.009   0.000   0.056     0.3     0.0     1.6     0.0     432    0.00    0.43    0.00    2.57     0.0     0.0     0.0     0.0     0.0     0.0     0.0     0.0     0.0     0.0     39.     63.     44.     58.     42.     21.     20.     41.     34.     22.     0.0     0.1     0.0     0.1     0.0     0.0     0.0     0.0     0.0     0.0     0.0     0.0     0.0     0.0     0.0     0.0     0.0     0.0     0.0     0.0     0.3     0.3     0.1     0.3     0.3     0.2     0.1     0.3     0.2     0.2
 2022 162    42    0.00    0.00    0.02    0.00     9.9   0.000   0.010   0.000   0.058     0.3     0.0     1.6     0.0     439    0.00    0.44    0.00    2.61     0.0     0.0     0.0     0.0     0.0     0.0     0.0     0.0     0.0     0.0     38.     64.     45.     59.     43.     22.     21.     42.     34.     22.     0.0     0.1     0.0     0.1     0.0     0.0     0.0     0.0     0.0     0.0     0.0     0.0     0.0     0.0     0.0     0.0     0.0     0.0     0.0     0.0     0.3     0.3     0.1     0.3     0.3     0.2     0.2     0.3     0.2     0.2
 2022 163    43    0.00    0.00    0.03    0.00    10.4   0.000   0.010   0.000   0.061     0.3     0.0     1.6     0.0     464    0.00    0.46    0.00    2.75     0.0     0.0     0.0     0.0     0.0     0.0     0.0     0.0     0.0     0.0     35.     68.     48.     63.     46.     23.     22.     45.     37.     24.     0.0     0.1     0.0     0.1     0.0     0.0     0.0     0.0     0.0     0.0     0.0     0.0     0.0     0.0     0.0     0.0     0.0     0.0     0.0     0.0     0.3     0.3     0.2     0.3     0.3     0.2     0.2     0.3     0.3     0.2
 2022 164    44    0.00    0.00    0.03    0.00    10.9   0.000   0.011   0.000   0.064     0.3     0.0     1.6     0.0     521    0.00    0.52    0.00    3.09     0.0     0.0     0.0     0.0     0.0     0.0     0.0     0.0     0.0     0.0     35.     78.     55.     71.     53.     26.     25.     51.     42.     27.     0.0     0.1     0.1     0.1     0.1     0.0     0.0     0.1     0.0     0.0     0.0     0.0     0.0     0.0     0.0     0.0     0.0     0.0     0.0     0.0     0.3     0.4     0.2     0.3     0.3     0.2     0.2     0.4     0.3     0.2
 2022 165    45    0.01    0.00    0.03    0.00    11.5   0.000   0.012   0.000   0.068     0.3     0.0     1.7     0.0     608    0.00    0.61    0.00    3.60     0.0     0.0     0.0     0.0     0.0     0.0     0.0     0.0     0.0     0.0     35.     91.     65.     84.     63.     31.     30.     60.     49.     32.     0.0     0.1     0.1     0.1     0.1     0.0     0.0     0.1     0.0     0.0     0.0     0.0     0.0     0.0     0.0     0.0     0.0     0.0     0.0     0.0     0.3     0.5     0.2     0.4     0.4     0.2     0.2     0.4     0.3     0.2
 2022 166    46    0.01    0.00    0.03    0.00    12.1   0.000   0.012   0.000   0.072     0.3     0.0     1.8     0.0     622    0.00    0.62    0.00    3.70     0.0     0.0     0.0     0.0     0.0     0.0     0.0     0.0     0.0     0.0     33.     88.     66.     85.     65.     33.     31.     63.     52.     33.     0.0     0.1     0.1     0.1     0.1     0.0     0.0     0.1     0.1     0.0     0.0     0.0     0.0     0.0     0.0     0.0     0.0     0.0     0.0     0.0     0.2     0.5     0.2     0.4     0.4     0.2     0.2     0.4     0.4     0.2
 2022 167    47    0.01    0.00    0.03    0.00    12.8   0.000   0.013   0.000   0.075     0.3     0.0     1.8     0.0     616    0.00    0.62    0.00    3.69     0.0     0.0     0.0     0.0     0.0     0.0     0.0     0.0     0.0     0.0     30.     82.     62.     84.     66.     33.     32.     65.     53.     34.     0.0     0.1     0.1     0.1     0.1     0.0     0.0     0.1     0.1     0.0     0.0     0.0     0.0     0.0     0.0     0.0     0.0     0.0     0.0     0.0     0.2     0.4     0.2     0.4     0.4     0.2     0.2     0.4     0.4     0.2
 2022 168    48    0.01    0.00    0.03    0.00    13.3   0.000   0.013   0.000   0.079     0.3     0.0     1.9     0.0     571    0.00    0.57    0.00    3.45     0.0     0.0     0.0     0.0     0.0     0.0     0.0     0.0     0.0     0.0     25.     71.     54.     78.     62.     32.     30.     62.     51.     33.     0.0     0.1     0.1     0.1     0.1     0.0     0.0     0.1     0.1     0.0     0.0     0.0     0.0     0.0     0.0     0.0     0.0     0.0     0.0     0.0     0.2     0.4     0.2     0.4     0.4     0.2     0.2     0.4     0.4     0.2
 2022 169    49    0.01    0.00    0.04    0.00    13.9   0.000   0.014   0.000   0.082     0.3     0.0     1.9     0.0     578    0.00    0.58    0.00    3.52     0.0     0.0     0.0     0.0     0.0     0.0     0.0     0.0     0.0     0.0     24.     67.     52.     78.     64.     33.     31.     64.     53.     35.     0.0     0.1     0.1     0.1     0.1     0.0     0.0     0.1     0.1     0.0     0.0     0.0     0.0     0.0     0.0     0.0     0.0     0.0     0.0     0.0     0.2     0.4     0.2     0.4     0.4     0.2     0.2     0.4     0.4     0.2