*GROWTH ASPECTS OUTPUT FILE

*DSSAT Cropping System Model Ver. 4.8.2.000 -release  APR 04, 2025 03:17:12

*RUN   1        : farm_23                   MZCER048 UNLI2309    1
 MODEL          : MZCER048 - Maize
 EXPERIMENT     : UNLI2309 MZ PIO1366
 DATA PATH      :
 TREATMENT  1   : farm_23                   MZCER048
  
!                                                                                                                                                                                                                                      Root Dens. (cm/cm3) by soil depth (cm):
!                                                                                                                                                                                                                                      0-5    5-15   15-23   23-31   31-46   46-61   61-91  91-106 106-122 122-183
@YEAR DOY   DAS   DAP   L#SD   GSTD   LAID   LWAD   SWAD   GWAD   RWAD   VWAD   CWAD   G#AD   GWGD   HIAD   PWAD   P#AD   WSPD   WSGD   NSTD   EWSD  PST1A  PST2A   KSTD   LN%D   SH%D   HIPD   PWDD   PWTD     SLAD   CHTD   CWID   RDPD    RL1D    RL2D    RL3D    RL4D    RL5D    RL6D    RL7D    RL8D    RL9D   RL10D   CDAD   LDAD   SDAD   SNW0C   SNW1C  DTTD
 2023 122    13     0    0.0      0   0.00      0      0      0      0      0      0      0    0.0  0.000      0      0  0.000  0.000  0.000  0.000  0.000  0.000  0.000   0.00   0.00   0.00      0      0      0.0   0.00   0.00   0.05    0.00    0.00    0.00    0.00    0.00    0.00    0.00    0.00    0.00    0.00      0      0      0       0       0  4.52
 2023 123    14     1    0.0      0   0.00      0      0      0      0      0      0      0    0.0  0.000      0      0  0.000  0.000  0.000  0.000  0.000  0.000  0.000   0.00   0.00   0.00      0      0      0.0   0.00   0.00   0.06    0.00    0.00    0.00    0.00    0.00    0.00    0.00    0.00    0.00    0.00      0      0      0       0       0  8.33
 2023 124    15     2    0.0      0   0.00      0      0      0      0      0      0      0    0.0  0.000      0      0  0.000  0.000  0.000  0.000  0.000  0.000  0.000   0.00   0.00   0.00      0      0      0.0   0.00   0.00   0.08    0.00    0.00    0.00    0.00    0.00    0.00    0.00    0.00    0.00    0.00      0      0      0       0       0 12.46
 2023 125    16     3    0.0      0   0.00      0      0      0      0      0      0      0    0.0  0.000      0      0  0.000  0.000  0.000  0.000  0.000  0.000  0.000   0.00   0.00   0.00      0      0      0.0   0.00   0.00   0.10    0.00    0.00    0.00    0.00    0.00    0.00    0.00    0.00    0.00    0.00      0      0      0       0       0 11.75
 2023 126    17     4    0.0      0   0.00      0      0      0      0      0      0      0    0.0  0.000      0      0  0.000  0.000  0.000  0.000  0.000  0.000  0.000   0.00   0.00   0.00      0      0      0.0   0.00   0.00   0.11    0.00    0.00    0.00    0.00    0.00    0.00    0.00    0.00    0.00    0.00      0      0      0       0       0  8.87
 2023 127    18     5    0.0      0   0.00      0      0      0      0      0      0      0    0.0  0.000      0      0  0.000  0.000  0.000  0.000  0.000  0.000  0.000   0.00   0.00   0.00      0      0      0.0   0.00   0.00   0.13    0.00    0.00    0.00    0.00    0.00    0.00    0.00    0.00    0.00    0.00      0      0      0       0       0  9.82
 2023 128    19     6    0.0      0   0.00      0      0      0      0      0      0      0    0.0  0.000      0      0  0.000  0.000  0.000  0.000  0.000  0.000  0.000   0.00   0.00   0.00      0      0      0.0   0.00   0.00   0.14    0.00    0.00    0.00    0.00    0.00    0.00    0.00    0.00    0.00    0.00      0      0      0       0       0 10.40
 2023 129    20     7    0.0      0   0.00      0      0      0      0      0      0      0    0.0  0.000      0      0  0.000  0.000  0.000  0.000  0.000  0.000  0.000   0.00   0.00   0.00      0      0      0.0   0.00   0.00   0.16    0.00    0.00    0.00    0.00    0.00    0.00    0.00    0.00    0.00    0.00      0      0      0       0       0 10.58
 2023 130    21     8    0.0      0   0.00      0      0      0      0      0      0      0    0.0  0.000      0      0  0.000  0.000  0.000  0.000  0.000  0.000  0.000   0.00   0.00   0.00      0      0      0.0   0.00   0.00   0.17    0.00    0.00    0.00    0.00    0.00    0.00    0.00    0.00    0.00    0.00      0      0      0       0       0  9.17
 2023 131    22     9    1.0      1   0.00     16     16      0     16     32     32      0    0.0  0.000      0      0  0.000  0.000  0.012  0.000  0.000  0.000  0.000   4.40   0.00   0.00      0      0     15.5   0.00   0.00   0.18    0.32    0.16    0.05    0.00    0.00    0.00    0.00    0.00    0.00    0.00      0      0      0       0       0  9.72
 2023 132    23    10    2.0      1   0.00     16     16      0     16     32     32      0    0.0  0.000      0      0  0.000  0.000  0.015  0.000  0.000  0.000  0.000   4.40   0.00   0.00      0      0     23.4   0.00   0.00   0.19    0.32    0.16    0.05    0.00    0.00    0.00    0.00    0.00    0.00    0.00      0      0      0       0       0  6.82
 2023 133    24    11    2.0      1   0.01     16     16      0     17     32     32      0    0.0  0.000      0      0  0.000  0.000  0.012  0.000  0.000  0.000  0.000   4.40   0.00   0.00      0      0     35.7   0.00   0.00   0.20    0.32    0.17    0.06    0.00    0.00    0.00    0.00    0.00    0.00    0.00      0      0      0       0       0  9.47
 2023 134    25    12    2.0      1   0.01     16     16      0     17     32     32      0    0.0  0.000      0      0  0.000  0.000  0.010  0.000  0.000  0.000  0.000   4.40   0.00   0.00      0      0     42.3   0.00   0.00   0.20    0.32    0.17    0.06    0.00    0.00    0.00    0.00    0.00    0.00    0.00      0      0      0       0       0  4.95
 2023 135    26    13    2.0      1   0.01     16     16      0     17     32     32      0    0.0  0.000      0      0  0.000  0.000  0.009  0.000  0.000  0.000  0.000   4.40   0.00   0.00      0      0     44.8   0.00   0.00   0.20    0.32    0.17    0.06    0.00    0.00    0.00    0.00    0.00    0.00    0.00      0      0      0       0       0  1.85
 2023 136    27    14    2.0      1   0.01     16     16      0     18     32     32      0    0.0  0.000      0      0  0.000  0.000  0.006  0.000  0.000  0.000  0.000   4.40   0.00   0.00      0      0     56.2   0.00   0.00   0.21    0.33    0.17    0.06    0.00    0.00    0.00    0.00    0.00    0.00    0.00      0      0      0       0       0  7.84
 2023 137    28    15    2.0      1   0.01     16     16      0     19     32     32      0    0.0  0.000      0      0  0.000  0.000  0.002  0.000  0.000  0.000  0.000   4.40   0.00   0.00      0      0     71.5   0.00   0.00   0.22    0.34    0.18    0.07    0.00    0.00    0.00    0.00    0.00    0.00    0.00      0      0      0       0       0  9.68
 2023 138    29    16    3.0      1   0.01     16     16      0     20     32     32      0    0.0  0.000      0      0  0.000  0.000  0.000  0.000  0.000  0.000  0.000   4.40   0.00   0.00      0      0     86.2   0.01   0.00   0.23    0.35    0.19    0.08    0.00    0.00    0.00    0.00    0.00    0.00    0.00      0      0      0       0       0  8.79
 2023 139    30    17    3.0      1   0.02     16     16      0     22     32     32      0    0.0  0.000      0      0  0.000  0.000  0.000  0.000  0.000  0.000  0.000   4.40   0.00   0.00      0      0     94.2   0.01   0.00   0.24    0.36    0.21    0.10    0.00    0.00    0.00    0.00    0.00    0.00    0.00      0      0      0       0       0  5.06
 2023 140    31    18    3.0      1   0.01     16     16      0     24     32     32      0    0.0  0.000      0      0  0.000  0.000  0.000  0.000  0.000  0.000  0.000   4.40   0.00   0.00      0      0     89.7   0.01   0.00   0.24    0.38    0.22    0.11    0.00    0.00    0.00    0.00    0.00    0.00    0.00      0      0      0       0       0  6.55
 2023 141    32    19    3.0      1   0.02     16     16      0     26     32     32      0    0.0  0.000      0      0  0.000  0.000  0.000  0.000  0.000  0.000  0.000   4.40   0.00   0.00      0      0    110.0   0.01   0.00   0.25    0.39    0.24    0.13    0.01    0.00    0.00    0.00    0.00    0.00    0.00      0      0      0       0       0 10.76
 2023 142    33    20    4.0      1   0.03     16     16      0     28     32     32      0    0.0  0.000      0      0  0.000  0.000  0.000  0.000  0.000  0.000  0.000   4.40   0.00   0.00      0      0    183.4   0.01   0.00   0.27    0.41    0.25    0.14    0.02    0.00    0.00    0.00    0.00    0.00    0.00      0      0      0       0       0 12.19
 2023 143    34    21    4.0      1   0.04     16     16      0     32     32     32      0    0.0  0.000      0      0  0.000  0.000  0.000  0.000  0.000  0.000  0.000   4.40   0.00   0.00      0      0    261.3   0.02   0.00   0.28    0.43    0.28    0.17    0.03    0.00    0.00    0.00    0.00    0.00    0.00      0      0      0       0       0 11.59
 2023 144    35    22    4.0      1   0.06     18     16      0     36     34     34      0    0.0  0.000      0      0  0.000  0.000  0.000  0.000  0.000  0.000  0.000   4.04   0.00   0.00      0      0    325.5   0.02   0.00   0.29    0.46    0.31    0.20    0.05    0.00    0.00    0.00    0.00    0.00    0.00      0      0      0       0       0 12.24
 2023 145    36    23    4.0      1   0.07     23     16      0     40     39     39      0    0.0  0.000      0      0  0.000  0.000  0.000  0.000  0.000  0.000  0.000   3.58   0.00   0.00      0      0    311.0   0.03   0.00   0.30    0.48    0.34    0.23    0.08    0.00    0.00    0.00    0.00    0.00    0.00      0      0      0       0       0 11.18
 2023 146    37    24    5.0      1   0.09     29     16      0     41     45     45      0    0.0  0.000      0      0  0.000  0.000  0.000  0.000  0.000  0.000  0.000   3.64   0.00   0.00      0      0    299.9   0.04   0.00   0.31    0.48    0.34    0.23    0.08    0.00    0.00    0.00    0.00    0.00    0.00      0      0      0       0       1  9.77
 2023 147    38    25    5.0      1   0.10     36     16      0     48     52     52      0    0.0  0.000      0      0  0.000  0.000  0.000  0.000  0.000  0.000  0.000   3.48   0.00   0.00      0      0    287.8   0.04   0.00   0.32    0.52    0.38    0.27    0.15    0.00    0.00    0.00    0.00    0.00    0.00      0      0      0       0       1 11.86
 2023 148    39    26    5.0      1   0.12     44     16      0     56     60     60      0    0.0  0.000      0      0  0.000  0.000  0.001  0.000  0.000  0.000  0.000   3.52   0.00   0.00      0      0    277.8   0.05   0.00   0.33    0.56    0.42    0.31    0.20    0.01    0.00    0.00    0.00    0.00    0.00      0      0      0       0       1 11.05
 2023 149    40    27    5.0      1   0.15     56     16      0     66     72     72      0    0.0  0.000      0      0  0.000  0.000  0.000  0.000  0.000  0.000  0.000   3.27   0.00   0.00      0      0    266.3   0.06   0.00   0.35    0.62    0.48    0.37    0.25    0.02    0.00    0.00    0.00    0.00    0.00      0      0      0       0       1 14.13
 2023 150    41    28    6.0      1   0.17     68     16      0     81     84     84      0    0.0  0.000      0      0  0.000  0.000  0.015  0.000  0.000  0.000  0.000   3.05   0.00   0.00      0      0    255.7   0.07   0.00   0.36    0.70    0.56    0.45    0.34    0.05    0.00    0.00    0.00    0.00    0.00      0      0      0       0       2 13.63
 2023 151    42    29    6.0      1   0.20     82     16      0     99     99     99      0    0.0  0.000      0      0  0.000  0.000  0.054  0.000  0.000  0.000  0.000   2.83   0.00   0.00      0      0    245.2   0.09   0.00   0.39    0.79    0.64    0.54    0.42    0.10    0.00    0.00    0.00    0.00    0.00      0      0      0       0       2 13.85
 2023 152    43    30    6.0      1   0.23     96     16      0    107    113    113      0    0.0  0.000      0      0  0.000  0.000  0.086  0.000  0.000  0.000  0.000   2.81   0.00   0.00      0      0    235.7   0.10   0.00   0.41    0.83    0.68    0.58    0.46    0.13    0.00    0.00    0.00    0.00    0.00      0      0      0       0       2 12.15
 2023 153    44    31    6.0      2   0.25    101     16      0    121    117    117      0    0.0  0.000      0      0  0.000  0.000  0.097  0.000  0.000  0.000  0.000   2.96   0.00   0.00      0      0    247.3   0.11   0.00   0.44    0.89    0.74    0.64    0.53    0.18    0.00    0.00    0.00    0.00    0.00      0      0      0       0       3 11.83
 2023 154    45    32    7.0      2   0.27    112     16      0    132    128    128      0    0.0  0.000      0      0  0.000  0.000  0.114  0.000  0.000  0.000  0.000   2.85   0.00   0.00      0      0    239.5   0.11   0.00   0.46    0.93    0.79    0.69    0.57    0.23    0.00    0.00    0.00    0.00    0.00      0      0      0       0       4 10.55
 2023 155    46    33    7.0      2   0.30    128     16      0    161    144    144      0    0.0  0.000      0      0  0.000  0.000  0.103  0.000  0.000  0.000  0.000   2.56   0.00   0.00      0      0    231.7   0.13   0.00   0.48    1.05    0.90    0.80    0.69    0.36    0.00    0.00    0.00    0.00    0.00      0      0      0       0       4 12.68
 2023 156    47    34    7.0      2   0.32    145     16      0    188    161    161      0    0.0  0.000      0      0  0.000  0.000  0.134  0.000  0.000  0.000  0.000   2.34   0.00   0.00      0      0    223.4   0.14   0.00   0.51    1.15    1.00    0.90    0.79    0.47    0.04    0.00    0.00    0.00    0.00      0      0      0       0       5 14.35
 2023 157    48    35    8.0      2   0.35    161     16      0    218    178    178      0    0.0  0.000      0      0  0.000  0.000  0.163  0.000  0.000  0.000  0.000   3.91   0.00   0.00      0      0    215.6   0.15   0.00   0.54    1.54    1.40    0.90    0.79    0.47    0.04    0.00    0.00    0.00    0.00      0      0      0       0       6 13.77
 2023 158    49    36    8.0      2   0.41    194     16      0    251    210    210      0    0.0  0.000      0      0  0.000  0.000  0.000  0.000  0.000  0.000  0.000   3.80   0.00   0.00      0      0    210.3   0.17   0.00   0.57    1.97    1.82    0.90    0.79    0.47    0.04    0.00    0.00    0.00    0.00      0      0      0       0       7 14.60
 2023 159    50    37    8.0      2   0.48    234     16      0    291    250    250      0    0.0  0.000      0      0  0.000  0.000  0.000  0.000  0.000  0.000  0.000   3.75   0.00   0.00      0      0    204.8   0.20   0.00   0.60    2.49    2.34    0.90    0.79    0.47    0.04    0.00    0.00    0.00    0.00      0      0      0       0       8 15.82
 2023 160    51    38    9.0      3   0.55    278     16      0    323    294    294      0    0.0  0.000      0      0  0.000  0.000  0.000  0.000  0.000  0.000  0.000   3.66   0.00   0.00      0      0    197.7   0.23   0.00   0.63    2.89    2.74    0.90    0.79    0.47    0.05    0.00    0.00    0.00    0.00      0      0      0       0      10 16.02
 2023 161    52    39    9.0      3   0.62    320     17      0    363    336    336      0    0.0  0.000      0      0  0.000  0.000  0.000  0.000  0.000  0.000  0.000   3.60   0.00   0.00      0      0    193.3   0.26   0.00   0.66    3.41    3.26    0.90    0.79    0.48    0.05    0.00    0.00    0.00    0.00      0      0      0       0      11 13.74
 2023 162    53    40    9.0      3   0.67    353     17      0    412    370    370      0    0.0  0.000      0      0  0.000  0.000  0.000  0.000  0.000  0.000  0.000   3.56   0.00   0.00      0      0    190.3   0.28   0.00   0.68    4.00    3.88    0.90    0.80    0.48    0.06    0.00    0.00    0.00    0.00      0      0      0       0      13 10.00
 2023 163    54    41    9.0      3   0.71    380     17      0    477    397    397      0    0.0  0.000      0      0  0.000  0.000  0.000  0.000  0.000  0.000  0.000   3.53   0.00   0.00      0      0    188.0   0.30   0.00   0.70    4.00    4.00    0.90    0.80    0.49    0.07    0.00    0.00    0.00    0.00      0      0      0       0      15  7.84
 2023 164    55    42    9.0      3   0.77    415     18      0    554    433    433      0    0.0  0.000      0      0  0.000  0.000  0.000  0.000  0.000  0.000  0.000   3.51   0.00   0.00      0      0    185.2   0.33   0.00   0.71    4.00    4.00    0.91    0.81    0.49    0.08    0.01    0.00    0.00    0.00      0      0      0       0      18  9.61
 2023 165    56    43   10.0      3   0.84    459     20      0    626    479    479      0    0.0  0.000      0      0  0.000  0.000  0.000  0.000  0.000  0.000  0.000   3.48   0.00   0.00      0      0    182.1   0.35   0.00   0.74    4.00    4.00    0.91    0.81    0.50    0.08    0.01    0.00    0.00    0.00      0      0      0       0      20 11.41
 2023 166    57    44   10.0      3   0.93    522     24      0    687    546    546      0    0.0  0.000      0      0  0.000  0.000  0.000  0.000  0.000  0.000  0.000   3.45   0.00   0.00      0      0    178.1   0.39   0.00   0.77    4.00    4.00    0.92    0.81    0.50    0.09    0.01    0.00    0.00    0.00      0      0      0       0      24 14.88
 2023 167    58    45   10.0      3   1.01    576     27      0    746    603    603      0    0.0  0.000      0      0  0.000  0.000  0.000  0.000  0.000  0.000  0.000   3.40   0.00   0.00      0      0    175.1   0.43   0.00   0.79    4.00    4.00    0.92    0.82    0.51    0.10    0.02    0.00    0.00    0.00      0      0      0       0      27 11.79
 2023 168    59    46   10.0      3   1.09    633     33      0    816    666    666      0    0.0  0.000      0      0  0.000  0.000  0.000  0.000  0.000  0.000  0.000   3.37   0.00   0.00      0      0    172.1   0.46   0.00   0.81    4.00    4.00    0.92    0.82    0.51    0.11    0.03    0.00    0.00    0.00      0      0      0       0      31 11.82
 2023 169    60    47   11.0      3   1.20    713     42      0    904    755    755      0    0.0  0.000      0      0  0.000  0.000  0.000  0.000  0.000  0.000  0.000   3.34   0.00   0.00      0      0    168.6   0.51   0.00   0.84    4.00    4.00    0.93    0.83    0.52    0.12    0.04    0.00    0.00    0.00      0      0      0       0      35 15.10
 2023 170    61    48   11.0      3   1.32    799     55      0   1000    853    853      0    0.0  0.000      0      0  0.000  0.000  0.000  0.000  0.000  0.000  0.000   3.30   0.00   0.00      0      0    165.1   0.56   0.00   0.88    4.00    4.00    0.94    0.84    0.53    0.13    0.05    0.00    0.00    0.00      0      0      0       0      39 15.15
 2023 171    62    49   11.0      3   1.45    898     73      0   1001    971    971      0    0.0  0.000      0      0  0.000  0.000  0.000  0.000  0.000  0.000  0.000   3.26   0.00   0.00      0      0    161.7   0.61   0.00   0.91    4.00    4.00    0.93    0.83    0.53    0.13    0.05    0.00    0.00    0.00      0      0      0       0      44 16.20
 2023 172    63    50   12.0      3   1.60   1012     99      0   1041   1111   1111      0    0.0  0.000      0      0  0.000  0.000  0.000  0.000  0.000  0.000  0.000   3.22   0.00   0.00      0      0    158.1   0.68   0.00   0.94    4.00    4.00    0.93    0.83    0.53    0.13    0.06    0.00    0.00    0.00      0      0      0       0      49 15.05
 2023 173    64    51   12.0      3   1.74   1118    127      0   1078   1245   1245      0    0.0  0.000      0      0  0.000  0.000  0.000  0.000  0.000  0.000  0.000   3.18   0.00   0.00      0      0    155.2   0.74   0.00   0.95    4.00    4.00    1.10    0.83    0.53    0.14    0.07    0.00    0.00    0.00      0      0      0       0      55 13.65
 2023 174    65    52   12.0      3   1.88   1230    161      0   1142   1391   1391      0    0.0  0.000      0      0  0.000  0.000  0.000  0.000  0.000  0.000  0.000   3.14   0.00   0.00      0      0    152.5   0.79   0.00   0.96    4.00    4.00    1.49    0.84    0.54    0.14    0.07    0.00    0.00    0.00      0      0      0       0      60 14.10
 2023 175    66    53   13.0      3   2.00   1335    198      0   1264   1533   1533      0    0.0  0.000      0      0  0.000  0.000  0.000  0.000  0.000  0.000  0.000   3.10   0.00   0.00      0      0    150.2   0.85   0.00   0.97    4.00    4.00    2.23    0.90    0.55    0.15    0.08    0.00    0.00    0.00      0      0      0       0      66 13.00
 2023 176    67    54   13.0      3   2.12   1428    234      0   1400   1662   1662      0    0.0  0.000      0      0  0.000  0.000  0.000  0.000  0.000  0.000  0.000   3.07   0.00   0.00      0      0    148.3   0.90   0.00   0.97    4.00    4.00    3.02    0.95    0.56    0.17    0.10    0.00    0.00    0.00      0      0      0       0      72 11.30
 2023 177    68    55   13.0      3   2.23   1520    273      0   1532   1793   1793      0    0.0  0.000      0      0  0.000  0.000  0.000  0.000  0.000  0.000  0.000   3.04   0.00   0.00      0      0    146.5   0.94   0.00   0.98    4.00    4.00    3.74    0.97    0.57    0.18    0.11    0.00    0.00    0.00      0      0      0       0      79 11.10
 2023 178    69    56   13.0      3   2.38   1651    336      0   1596   1987   1987      0    0.0  0.000      0      0  0.000  0.000  0.000  0.000  0.000  0.000  0.000   3.01   0.00   0.00      0      0    144.3   1.01   0.00   0.99    4.00    4.00    4.00    0.98    0.58    0.19    0.12    0.00    0.00    0.00      0      0      0       0      87 15.45
 2023 179    70    57   14.0      3   2.56   1809    424      0   1667   2233   2233      0    0.0  0.000      0      0  0.000  0.000  0.000  0.000  0.000  0.000  0.000   2.96   0.00   0.00      0      0    141.8   1.09   0.00   1.00    4.00    4.00    4.00    0.98    0.59    0.20    0.13    0.00    0.00    0.00      0      0      0       0      95 18.40
 2023 180    71    58   14.0      3   2.72   1941    507      0   1772   2449   2449      0    0.0  0.000      0      0  0.000  0.000  0.000  0.000  0.000  0.000  0.000   2.92   0.00   0.00      0      0    139.9   1.15   0.00   1.02    4.00    4.00    4.00    0.99    0.60    0.22    0.15    0.00    0.00    0.00      0      0      0       0     103 15.20
 2023 181    72    59   14.0      3   2.83   2045    578      0   1785   2623   2623      0    0.0  0.000      0      0  0.000  0.000  0.000  0.000  0.000  0.000  0.000   2.89   0.00   0.00      0      0    138.5   1.20   0.00   1.02    4.00    4.00    4.00    0.99    0.60    0.22    0.15    0.00    0.00    0.00      0      0      0       0     112 11.75
 2023 182    73    60   15.0      3   2.95   2148    653      0   1857   2801   2801      0    0.0  0.000      0      0  0.000  0.000  0.000  0.000  0.000  0.000  0.000   2.86   0.00   0.00      0      0    137.2   1.25   0.00   1.03    4.00    4.00    4.00    1.00    0.61    0.23    0.16    0.00    0.00    0.00      0      0      0       0     121 11.50
 2023 183    74    61   15.0      3   3.09   2275    755      0   1968   3029   3029      0    0.0  0.000      0      0  0.000  0.000  0.000  0.000  0.000  0.000  0.000   2.83   0.00   0.00      0      0    135.7   1.31   0.00   1.04    4.00    4.00    4.00    1.01    0.62    0.25    0.18    0.00    0.00    0.00      0      0      0       0     130 14.00
 2023 184    75    62   15.0      3   3.35   2520    942      0   1982   3462   3462      0    0.0  0.000      0      0  0.000  0.000  0.000  0.000  0.000  0.000  0.000   2.80   0.00   0.00      0      0    133.1   1.42   0.00   1.05    3.98    4.00    4.00    1.01    0.62    0.25    0.18    0.00    0.00    0.00      0      0      0       0     140 17.00
 2023 185    76    63   15.0      3   3.53   2684   1134      0   1992   3818   3818      0    0.0  0.000      0      0  0.000  0.000  0.000  0.000  0.000  0.000  0.000   2.70   0.00   0.00      0      0    131.5   1.50   0.00   1.06    3.97    4.00    4.00    1.01    0.62    0.25    0.18    0.00    0.00    0.00      0      0      0       0     150 13.60
 2023 186    77    64   16.0      3   3.59   2739   1206      0   1989   3945   3946      0    0.0  0.000      1      0  0.000  0.000  0.000  0.000  0.000  0.000  0.000   2.68   0.00   0.00      0      1    130.9   1.52   0.00   1.07    3.95    4.00    3.99    1.00    0.62    0.25    0.19    0.00    0.00    0.00      0      0      0       0     160  7.60
 2023 187    78    65   16.0      3   3.65   2798   1293      0   1988   4091   4094      0    0.0  0.000      3      0  0.000  0.000  0.000  0.000  0.000  0.000  0.000   2.62   0.00   0.00      0      3    130.4   1.55   0.00   1.07    3.94    4.00    3.98    1.01    0.63    0.26    0.19    0.01    0.00    0.00      0      0      0       0     170  7.30
 2023 188    79    66   16.0      3   3.77   2917   1487      0   2033   4404   4415      0    0.0  0.000     11      0  0.000  0.000  0.000  0.000  0.000  0.000  0.000   2.44   0.00   0.00      0     11    129.4   1.60   0.00   1.08    4.00    4.00    4.00    1.12    0.74    0.37    0.31    0.03    0.00    0.00      0      0      0       0     180 12.90
 2023 189    80    67   16.0      3   3.83   2978   1592      0   2056   4570   4587      0    0.0  0.000     16      0  0.000  0.000  0.006  0.000  0.000  0.000  0.000   2.36   0.00   0.00      0     16    128.7   1.60   0.00   1.09    4.00    4.00    4.00    1.18    0.81    0.44    0.37    0.05    0.00    0.00      0      0      0       0     190  7.15
 2023 190    81    68   16.0      3   3.90   3059   1737      0   2169   4795   4825      0    0.0  0.000     30      0  0.000  0.000  0.036  0.000  0.000  0.000  0.000   2.26   0.00   0.01      0     30    127.5   1.60   0.00   1.09    4.00    4.00    4.00    1.43    1.06    0.69    0.63    0.08    0.02    0.00      0      0      0       0     200 11.05
 2023 191    82    69   17.0      3   3.99   3167   1954      0   2220   5121   5168      0    0.0  0.000     47      0  0.000  0.000  0.046  0.000  0.000  0.000  0.000   2.12   0.00   0.01      0     47    125.9   1.60   0.00   1.11    4.00    4.00    4.00    1.55    1.18    0.82    0.75    0.09    0.03    0.00      0      0      0       0     211 16.90
 2023 192    83    70   17.0      3   4.05   3257   2144      0   2272   5400   5469      0    0.0  0.000     69      0  0.000  0.000  0.060  0.000  0.000  0.000  0.000   2.01   0.00   0.01      0     69    124.3   1.60   0.00   1.12    4.00    4.00    4.00    1.68    1.31    0.95    0.88    0.11    0.04    0.00      0      0      0       0     222 15.85
 2023 193    84    71   17.0      3   4.09   3339   2322      0   2339   5661   5761      0    0.0  0.000    100      0  0.000  0.000  0.081  0.000  0.000  0.000  0.000   1.93   0.00   0.02      0    100    122.5   1.60   0.00   1.13    4.00    4.00    4.00    1.83    1.47    1.11    1.04    0.12    0.04    0.00      0      0      0       0     233 16.70
 2023 194    85    72   18.0      3   4.11   3405   2470      0   2356   5875   6002      0    0.0  0.000    127      0  0.000  0.000  0.096  0.000  0.000  0.000  0.000   1.87   0.00   0.02      0    127    120.6   1.60   0.00   1.14    4.00    4.00    4.00    1.88    1.52    1.16    1.09    0.13    0.05    0.00      0      0      0       0     245 14.75
 2023 195    86    73   18.0      3   4.11   3460   2587      0   2399   6047   6210      0    0.0  0.000    163      0  0.000  0.000  0.108  0.000  0.000  0.000  0.000   1.82   0.00   0.03      0    163    118.7   1.60   0.00   1.15    4.00    4.00    4.00    1.99    1.62    1.27    1.20    0.14    0.05    0.00      0      0      0       0     257 13.35
 2023 196    87    74   18.0      3   4.10   3511   2682      0   2478   6193   6410      0    0.0  0.000    218      0  0.000  0.000  0.117  0.000  0.000  0.000  0.000   1.78   0.00   0.03      0    218    116.7   1.60   0.00   1.16    4.00    4.00    4.00    2.17    1.80    1.45    1.39    0.16    0.07    0.00      0      0      0       0     269 13.45
 2023 197    88    75   19.0      3   4.09   3569   2791      0   2529   6360   6644      0    0.0  0.000    284      0  0.000  0.000  0.121  0.000  0.000  0.000  0.000   1.74   0.00   0.04      0    284    114.7   1.60   0.00   1.17    4.00    4.00    4.00    2.29    1.93    1.57    1.51    0.18    0.08    0.00      0      0      0       0     281 16.05
 2023 198    89    76   19.0      3   4.08   3620   2852      0   2619   6471   6849      0    0.0  0.000    378      0  0.000  0.000  0.125  0.000  0.000  0.000  0.000   1.72   0.00   0.06      0    378    112.7   1.60   0.00   1.18    4.00    4.00    4.00    2.49    2.13    1.78    1.72    0.20    0.09    0.00      0      0      0       0     294 14.30
 2023 199    90    77   19.0      3   4.06   3669   2923      0   2649   6592   7050      0    0.0  0.000    458      0  0.000  0.000  0.129  0.000  0.000  0.000  0.000   1.69   0.00   0.06      0    458    110.7   1.60   0.00   1.19    4.00    4.00    4.00    2.56    2.21    1.86    1.80    0.21    0.10    0.00      0      0      0       0     307 14.25
 2023 200    91    78   19.0      3   4.03   3706   2997      0   2644   6703   7198      0    0.0  0.000    495      0  0.000  0.000  0.130  0.000  0.000  0.000  0.000   1.67   0.00   0.07      0    495    108.8   1.60   0.00   1.20    4.00    4.00    4.00    2.57    2.22    1.87    1.80    0.21    0.10    0.00      0      0      0       0     320 15.60
 2023 201    92    79   19.0      3   4.00   3746   3052      0   2640   6798   7359      0    0.0  0.000    561      0  0.000  0.000  0.132  0.000  0.000  0.000  0.000   1.86   0.00   0.08      0    561    106.9   1.60   0.00   1.21    3.98    4.00    3.98    2.56    2.21    1.86    1.80    0.21    0.10    0.00      0      0      0       0     333 12.15