*Soil Inorganic Nitrogen daily output file

*DSSAT Cropping System Model Ver. 4.8.2.000 -release  JUN 03, 2025 03:24:58

*RUN   1        : farm_23                   MZCER048 UNLI2309    1
 MODEL          : MZCER048 - Maize
 EXPERIMENT     : UNLI2309 MZ PIO1366
 DATA PATH      :
 TREATMENT  1   : farm_23                   MZCER048
  
!                                                                                                                                      NO3 (ppm) at soil dep. (cm):                                                    NH4 (ppm) at soil dep. (cm):                                                    Total Inorganic N @dep(ppm):
!                                                                                                                                       0-5    5-15   15-23   23-31   31-46   46-61   61-91  91-106 106-122 122-183     0-5    5-15   15-23   23-31   31-46   46-61   61-91  91-106 106-122 122-183     0-5    5-15   15-23   23-31   31-46   46-61   61-91  91-106 106-122 122-183
@YEAR DOY   DAS  NAPC  NI#M    NIAD    NITD    NHTD   NURTD    NMNC    NITC    NDNC    NIMC    AMLC   NNMNC    NUCM    NLCC    TDNC    NI1D    NI2D    NI3D    NI4D    NI5D    NI6D    NI7D    NI8D    NI9D    NI10    NH1D    NH2D    NH3D    NH4D    NH5D    NH6D    NH7D    NH8D    NH9D    NH10    NT1D    NT2D    NT3D    NT4D    NT5D    NT6D    NT7D    NT8D    NT9D    NT10    
 2020 109     0     0     0    16.7    14.3     2.4     0.0    0.00    0.00    0.00    0.00    0.00    0.00    0.00    0.00    0.00    0.60     0.6     0.6    0.60    0.60    0.60    0.60    0.60    0.60    0.60    0.10    0.10    0.10    0.10    0.10    0.10    0.10    0.10    0.10    0.10    0.70    0.70    0.70    0.70    0.70    0.70    0.70    0.70    0.70    0.70
 2020 110     1     0     0    16.8    14.5     2.2     0.0    0.06    0.24    0.00    0.00    0.00    0.06    0.00    0.00    0.00    0.61     0.6     0.6    0.61    0.61    0.61    0.61    0.61    0.61    0.61    0.10    0.10    0.10    0.10    0.10    0.09    0.09    0.09    0.09    0.09    0.71    0.71    0.71    0.71    0.70    0.70    0.70    0.70    0.70    0.70
 2020 111     2     0     0    16.8    14.8     2.0     0.0    0.12    0.47    0.00    0.00    0.00    0.12    0.00    0.00    0.00    0.61     0.6     0.6    0.62    0.62    0.62    0.62    0.62    0.62    0.62    0.10    0.10    0.10    0.10    0.09    0.09    0.08    0.08    0.08    0.08    0.71    0.72    0.72    0.72    0.71    0.71    0.70    0.70    0.70    0.70
 2020 112     3     0     0    16.9    15.0     1.9     0.0    0.18    0.68    0.00    0.00    0.00    0.18    0.00    0.00    0.00    0.62     0.6     0.6    0.63    0.63    0.62    0.63    0.63    0.63    0.63    0.10    0.10    0.10    0.10    0.09    0.09    0.07    0.07    0.07    0.07    0.72    0.74    0.73    0.72    0.71    0.71    0.70    0.70    0.70    0.70
 2020 113     4     0     0    16.9    15.2     1.8     0.0    0.26    0.88    0.00    0.00    0.00    0.26    0.00    0.00    0.00    0.62     0.6     0.6    0.64    0.63    0.63    0.64    0.64    0.64    0.64    0.11    0.10    0.10    0.10    0.08    0.08    0.07    0.07    0.07    0.07    0.73    0.75    0.74    0.73    0.72    0.71    0.71    0.70    0.70    0.70
 2020 114     5     0     0    17.1    15.4     1.7     0.0    0.37    1.07    0.00    0.00    0.00    0.37    0.00    0.00    0.00    0.63     0.7     0.7    0.65    0.64    0.64    0.65    0.64    0.64    0.64    0.11    0.11    0.10    0.10    0.08    0.08    0.06    0.06    0.06    0.06    0.74    0.77    0.76    0.75    0.73    0.72    0.71    0.70    0.70    0.70
 2020 115     6     0     0    17.2    15.6     1.6     0.0    0.50    1.27    0.00    0.00    0.00    0.50    0.00    0.00    0.00    0.62     0.7     0.7    0.66    0.65    0.65    0.66    0.65    0.65    0.65    0.11    0.11    0.11    0.10    0.08    0.08    0.06    0.05    0.05    0.05    0.74    0.80    0.77    0.76    0.73    0.73    0.71    0.71    0.70    0.70
 2020 116     7     0     0    17.3    15.8     1.6     0.0    0.64    1.47    0.00    0.00    0.00    0.64    0.00    0.00    0.00    0.60     0.7     0.7    0.67    0.66    0.66    0.66    0.66    0.66    0.66    0.12    0.12    0.11    0.11    0.08    0.08    0.06    0.05    0.05    0.05    0.72    0.83    0.79    0.78    0.74    0.74    0.72    0.71    0.71    0.70
 2020 117     8     0     0    17.5    16.0     1.5     0.0    0.78    1.66    0.00    0.00    0.00    0.78    0.00    0.00    0.00    0.61     0.7     0.7    0.69    0.67    0.67    0.67    0.67    0.66    0.66    0.13    0.12    0.12    0.11    0.08    0.08    0.05    0.05    0.04    0.04    0.73    0.85    0.82    0.80    0.75    0.74    0.72    0.71    0.71    0.71
 2020 118     9     0     0    17.6    16.1     1.5     0.0    0.94    1.85    0.00    0.00    0.00    0.94    0.00    0.00    0.00    0.62     0.7     0.7    0.70    0.68    0.67    0.68    0.67    0.67    0.67    0.13    0.13    0.12    0.12    0.08    0.08    0.05    0.04    0.04    0.04    0.75    0.87    0.84    0.82    0.76    0.75    0.73    0.71    0.71    0.71
 2020 119    10     0     0    17.8    16.3     1.5     0.0    1.12    2.04    0.00    0.00    0.00    1.12    0.00    0.00    0.00    0.63     0.8     0.7    0.72    0.69    0.68    0.69    0.68    0.67    0.67    0.14    0.13    0.13    0.12    0.08    0.08    0.05    0.04    0.04    0.04    0.77    0.89    0.87    0.84    0.77    0.76    0.74    0.72    0.71    0.71
 2020 120    11     0     0    18.0    16.5     1.5     0.0    1.31    2.24    0.00    0.00    0.00    1.31    0.00    0.00    0.00    0.65     0.8     0.8    0.74    0.70    0.69    0.69    0.68    0.68    0.68    0.14    0.14    0.13    0.13    0.09    0.08    0.05    0.04    0.04    0.04    0.80    0.91    0.89    0.87    0.79    0.77    0.74    0.72    0.72    0.71
 2020 121    12     0     0    18.2    16.7     1.5     0.0    1.52    2.45    0.00    0.00    0.00    1.52    0.00    0.00    0.00    0.68     0.8     0.8    0.76    0.71    0.70    0.70    0.69    0.69    0.68    0.15    0.14    0.14    0.13    0.09    0.08    0.05    0.03    0.03    0.03    0.82    0.94    0.92    0.89    0.80    0.79    0.75    0.72    0.72    0.72
 2020 122    13     0     1    18.4    17.0     1.5     0.0    1.76    2.67    0.00    0.00    0.00    1.76    0.00    0.00    0.00    0.70     0.8     0.8    0.78    0.73    0.72    0.71    0.69    0.69    0.69    0.16    0.15    0.14    0.14    0.09    0.08    0.05    0.03    0.03    0.03    0.86    0.97    0.94    0.92    0.82    0.80    0.76    0.73    0.72    0.72
 2020 123    14     0     1    18.7    17.2     1.5     0.0    2.04    2.92    0.00    0.00    0.00    2.04    0.00    0.00    0.00    0.73     0.8     0.8    0.80    0.74    0.73    0.72    0.70    0.70    0.69    0.16    0.16    0.15    0.15    0.09    0.09    0.05    0.03    0.03    0.03    0.89    1.00    0.98    0.95    0.83    0.82    0.77    0.73    0.73    0.72
 2020 124    15     0     1    19.0    17.5     1.5     0.0    2.29    3.16    0.00    0.00    0.00    2.29    0.00    0.00    0.00    0.57     0.9     0.9    0.83    0.76    0.74    0.73    0.70    0.70    0.70    0.17    0.16    0.16    0.15    0.10    0.09    0.05    0.03    0.03    0.03    0.73    1.09    1.05    0.98    0.85    0.83    0.78    0.74    0.73    0.73
 2020 125    16     0     1    19.2    17.7     1.5     0.0    2.54    3.39    0.00    0.00    0.00    2.54    0.00    0.00    0.00    0.32     0.8     1.0    1.03    0.81    0.75    0.74    0.71    0.70    0.70    0.18    0.17    0.16    0.16    0.10    0.09    0.05    0.03    0.03    0.03    0.50    0.97    1.18    1.19    0.91    0.85    0.79    0.74    0.74    0.73
 2020 126    17     0     1    19.5    17.9     1.6     0.0    2.78    3.58    0.00    0.00    0.00    2.78    0.00    0.00    0.00    0.30     0.7     0.9    0.96    0.87    0.89    0.75    0.71    0.71    0.70    0.20    0.18    0.17    0.16    0.10    0.09    0.05    0.03    0.03    0.03    0.50    0.90    1.09    1.13    0.96    0.98    0.80    0.74    0.74    0.73
 2020 127    18     0     1    19.7    18.1     1.6     0.0    3.00    3.80    0.00    0.00    0.00    3.00    0.00    0.00    0.00    0.31     0.7     0.9    0.96    0.87    0.90    0.79    0.72    0.71    0.71    0.20    0.19    0.18    0.17    0.10    0.09    0.05    0.03    0.03    0.03    0.51    0.89    1.06    1.13    0.97    0.99    0.85    0.75    0.74    0.74
 2020 128    19     0     1    19.8    18.3     1.5     0.0    3.15    3.99    0.00    0.00    0.00    3.15    0.00    0.00    0.00    0.33     0.7     0.9    0.98    0.88    0.91    0.82    0.72    0.72    0.71    0.20    0.19    0.18    0.17    0.10    0.09    0.05    0.03    0.03    0.03    0.53    0.89    1.06    1.14    0.98    1.00    0.87    0.75    0.74    0.74
 2020 129    20     0     1    20.0    18.5     1.5     0.0    3.30    4.17    0.00    0.00    0.00    3.30    0.00    0.00    0.00    0.35     0.7     0.9    0.99    0.89    0.92    0.83    0.73    0.72    0.71    0.20    0.18    0.17    0.17    0.10    0.09    0.05    0.03    0.03    0.02    0.54    0.90    1.07    1.16    0.98    1.01    0.88    0.75    0.75    0.74
 2020 130    21     0     1    20.1    18.6     1.5     0.0    3.42    4.34    0.00    0.00    0.00    3.42    0.00    0.00    0.00    0.37     0.7     0.9    1.01    0.90    0.92    0.83    0.73    0.72    0.72    0.19    0.18    0.17    0.16    0.09    0.09    0.05    0.03    0.02    0.02    0.56    0.92    1.09    1.17    0.99    1.01    0.88    0.76    0.75    0.74
 2020 131    22     0     1    20.2    18.8     1.4     0.0    3.53    4.50    0.00    0.00    0.00    3.53    0.00    0.00    0.00    0.39     0.8     0.9    1.03    0.91    0.93    0.84    0.74    0.73    0.72    0.19    0.18    0.17    0.16    0.09    0.09    0.04    0.02    0.02    0.02    0.58    0.94    1.10    1.19    1.00    1.02    0.88    0.76    0.75    0.74
 2020 132    23     0     1    20.3    18.9     1.3     0.0    3.60    4.64    0.00    0.00    0.00    3.60    0.00    0.00    0.00    0.42     0.8     1.0    1.04    0.92    0.94    0.84    0.74    0.73    0.72    0.18    0.17    0.16    0.16    0.09    0.08    0.04    0.02    0.02    0.02    0.59    0.95    1.11    1.20    1.00    1.02    0.89    0.76    0.75    0.74
 2020 133    24     0     1    20.3    19.1     1.3     0.0    3.65    4.77    0.00    0.00    0.00    3.65    0.00    0.00    0.00    0.44     0.8     1.0    1.05    0.92    0.94    0.85    0.74    0.73    0.72    0.17    0.16    0.16    0.15    0.08    0.08    0.04    0.02    0.02    0.02    0.61    0.95    1.12    1.20    1.01    1.02    0.89    0.76    0.75    0.74
 2020 134    25     0     1    20.3    19.2     1.2     0.0    3.66    4.87    0.00    0.00    0.00    3.66    0.00    0.00    0.00    0.45     0.8     1.0    1.06    0.93    0.95    0.85    0.75    0.73    0.73    0.16    0.15    0.15    0.14    0.08    0.07    0.03    0.02    0.02    0.02    0.61    0.96    1.12    1.20    1.01    1.02    0.89    0.77    0.75    0.74
 2020 135    26     0     1    20.3    19.3     1.1     0.0    3.67    4.97    0.00    0.00    0.00    3.67    0.00    0.00    0.00    0.47     0.8     1.0    1.07    0.94    0.95    0.86    0.75    0.74    0.73    0.15    0.14    0.14    0.13    0.07    0.07    0.03    0.02    0.02    0.01    0.62    0.96    1.13    1.21    1.01    1.02    0.89    0.77    0.75    0.74
 2020 136    27     0     1    20.4    19.4     1.0     0.0    3.71    5.07    0.00    0.00    0.00    3.71    0.00    0.00    0.00    0.32     0.8     1.0    1.12    0.96    0.97    0.86    0.75    0.74    0.73    0.14    0.14    0.13    0.13    0.07    0.06    0.03    0.01    0.01    0.01    0.47    0.93    1.16    1.25    1.02    1.04    0.89    0.77    0.75    0.74
 2020 137    28     0     1    20.5    19.5     1.0     0.0    3.80    5.17    0.00    0.00    0.00    3.80    0.00    0.00    0.00    0.23     0.7     1.0    1.16    0.98    1.00    0.89    0.76    0.74    0.73    0.15    0.14    0.13    0.13    0.07    0.06    0.03    0.01    0.01    0.01    0.38    0.85    1.15    1.29    1.05    1.06    0.92    0.77    0.75    0.74
 2020 138    29     0     1    20.6    19.6     1.1     0.0    3.95    5.27    0.00    0.00    0.00    3.95    0.00    0.00    0.00    0.22     0.6     0.9    1.07    0.94    0.98    0.90    0.86    0.85    0.73    0.16    0.15    0.14    0.13    0.07    0.06    0.03    0.02    0.01    0.01    0.38    0.79    1.05    1.20    1.01    1.04    0.93    0.87    0.86    0.74
 2020 139    30     0     1    20.8    19.7     1.1     0.0    4.14    5.40    0.00    0.00    0.00    4.14    0.00    0.00    0.00    0.22     0.6     0.9    1.04    0.93    0.98    0.91    0.86    0.87    0.77    0.17    0.15    0.15    0.14    0.07    0.07    0.03    0.02    0.01    0.01    0.39    0.78    1.03    1.18    1.01    1.05    0.94    0.87    0.89    0.78
 2020 140    31     0     1    21.0    19.8     1.2     0.0    4.34    5.55    0.00    0.00    0.00    4.34    0.00    0.00    0.00    0.24     0.6     0.9    1.04    0.94    0.99    0.91    0.86    0.87    0.79    0.17    0.16    0.15    0.14    0.08    0.07    0.03    0.02    0.02    0.01    0.41    0.79    1.03    1.18    1.02    1.06    0.94    0.88    0.89    0.80
 2020 141    32     0     1    21.2    20.0     1.2     0.0    4.55    5.71    0.00    0.00    0.00    4.55    0.00    0.00    0.00    0.27     0.7     0.9    1.05    0.95    0.99    0.91    0.86    0.88    0.80    0.17    0.16    0.16    0.15    0.08    0.07    0.04    0.02    0.02    0.02    0.44    0.81    1.05    1.20    1.03    1.07    0.95    0.88    0.89    0.81
 2020 142    33     0     1    21.4    20.2     1.3     0.0    4.78    5.89    0.01    0.00    0.00    4.78    0.00    0.00    0.00    0.30     0.7     0.9    1.07    0.96    1.00    0.92    0.86    0.88    0.80    0.17    0.17    0.16    0.15    0.08    0.08    0.04    0.02    0.02    0.02    0.47    0.84    1.08    1.23    1.04    1.08    0.96    0.88    0.89    0.81
 2020 143    34     0     1    21.7    20.4     1.3     0.0    5.01    6.08    0.01    0.00    0.00    5.01    0.00    0.00    0.00    0.33     0.7     0.9    1.09    0.97    1.01    0.93    0.87    0.88    0.80    0.18    0.17    0.17    0.16    0.09    0.08    0.04    0.02    0.02    0.02    0.50    0.87    1.10    1.25    1.06    1.09    0.97    0.89    0.90    0.82
 2020 144    35     0     1    21.9    20.6     1.4     0.0    5.27    6.29    0.01    0.00    0.00    5.27    0.00    0.00    0.00    0.36     0.7     1.0    1.12    0.98    1.03    0.93    0.87    0.88    0.80    0.18    0.17    0.17    0.17    0.09    0.08    0.04    0.02    0.02    0.02    0.54    0.90    1.13    1.28    1.07    1.11    0.98    0.89    0.90    0.82
 2020 145    36     0     1    22.2    20.8     1.4     0.0    5.57    6.53    0.01    0.00    0.00    5.57    0.00    0.00    0.00    0.40     0.8     1.0    1.14    1.00    1.04    0.94    0.87    0.88    0.81    0.18    0.18    0.17    0.17    0.09    0.09    0.05    0.02    0.02    0.02    0.58    0.94    1.17    1.31    1.09    1.13    0.99    0.90    0.90    0.83
 2020 146    37     0     1    22.5    21.1     1.5     0.0    5.86    6.78    0.01    0.00    0.00    5.86    0.00    0.00    0.00    0.33     0.8     1.0    1.19    1.02    1.05    0.96    0.88    0.88    0.81    0.18    0.18    0.17    0.18    0.10    0.09    0.05    0.02    0.02    0.02    0.51    0.95    1.22    1.37    1.12    1.14    1.01    0.90    0.91    0.83
 2020 147    38     0     1    22.8    21.3     1.5     0.0    6.12    6.99    0.01    0.00    0.00    6.12    0.00    0.00    0.00    0.31     0.7     1.0    1.16    1.02    1.05    0.96    0.88    0.89    0.88    0.20    0.18    0.18    0.18    0.10    0.09    0.05    0.03    0.02    0.02    0.51    0.92    1.18    1.34    1.11    1.15    1.01    0.91    0.92    0.90
 2020 148    39     0     1    23.0    21.5     1.5     0.0    6.38    7.22    0.01    0.00    0.00    6.38    0.00    0.00    0.00    0.32     0.7     1.0    1.17    1.03    1.07    0.97    0.89    0.90    0.88    0.20    0.19    0.18    0.18    0.10    0.09    0.05    0.03    0.02    0.02    0.53    0.93    1.19    1.35    1.13    1.16    1.02    0.91    0.92    0.90
 2020 149    40     0     1    23.3    21.7     1.6     0.0    6.63    7.45    0.01    0.00    0.00    6.63    0.00    0.00    0.00    0.35     0.8     1.0    1.19    1.04    1.08    0.98    0.89    0.90    0.89    0.20    0.19    0.19    0.18    0.10    0.10    0.05    0.03    0.02    0.02    0.55    0.95    1.21    1.38    1.14    1.17    1.03    0.92    0.92    0.91
 2020 150    41     0     1    23.5    22.0     1.6     0.0    6.89    7.70    0.01    0.00    0.00    6.89    0.00    0.00    0.00    0.38     0.8     1.1    1.22    1.06    1.09    0.99    0.90    0.90    0.89    0.20    0.19    0.19    0.19    0.10    0.10    0.05    0.03    0.03    0.02    0.59    0.98    1.24    1.40    1.16    1.19    1.04    0.92    0.93    0.91
 2020 151    42     0     1    23.8    22.2     1.6     0.0    7.16    7.95    0.01    0.00    0.00    7.16    0.00    0.00    0.00    0.42     0.8     1.1    1.25    1.07    1.11    1.00    0.90    0.91    0.89    0.20    0.19    0.19    0.19    0.10    0.10    0.05    0.03    0.03    0.02    0.62    1.01    1.27    1.43    1.18    1.21    1.05    0.93    0.93    0.91
 2020 152    43     0     1    24.1    22.4     1.6     0.0    7.48    8.24    0.01    0.00    0.00    7.48    0.07    0.00    0.00    0.46     0.8     1.1    1.27    1.09    1.12    1.01    0.91    0.91    0.89    0.20    0.19    0.19    0.19    0.10    0.10    0.05    0.03    0.03    0.02    0.65    1.03    1.28    1.46    1.20    1.22    1.06    0.93    0.94    0.92
 2020 153    44     0     1    24.4    22.7     1.7     0.0    7.84    8.57    0.01    0.00    0.00    7.84    0.09    0.00    0.00    0.51     0.9     1.1    1.30    1.11    1.14    1.02    0.91    0.92    0.90    0.19    0.19    0.19    0.19    0.11    0.10    0.06    0.03    0.03    0.03    0.70    1.06    1.31    1.49    1.22    1.24    1.08    0.94    0.95    0.92
 2020 154    45     0     1    24.5    22.8     1.7     0.0    8.26    8.95    0.01    0.00    0.00    8.26    0.38    0.00    0.00    0.52     0.8     1.1    1.26    1.14    1.16    1.03    0.92    0.92    0.90    0.19    0.19    0.19    0.20    0.11    0.11    0.06    0.03    0.03    0.03    0.71    1.04    1.26    1.45    1.24    1.27    1.09    0.95    0.95    0.93
 2020 155    46     0     1    24.4    22.6     1.7     0.0    8.72    9.39    0.01    0.00    0.00    8.72    1.01    0.00    0.00    0.48     0.7     0.9    1.10    1.16    1.19    1.05    0.93    0.93    0.91    0.19    0.19    0.19    0.19    0.11    0.11    0.06    0.03    0.03    0.03    0.67    0.94    1.11    1.29    1.27    1.29    1.11    0.96    0.96    0.94
 2020 156    47     0     1    24.1    22.3     1.7     0.0    9.20    9.85    0.01    0.00    0.00    9.20    1.80    0.00    0.00    0.42     0.6     0.7    0.89    1.18    1.21    1.07    0.93    0.94    0.91    0.19    0.19    0.19    0.19    0.11    0.11    0.06    0.03    0.03    0.03    0.61    0.81    0.93    1.08    1.29    1.32    1.13    0.97    0.97    0.94
 2020 157    48     0     1    23.8    22.0     1.7     0.0    9.71   10.35    0.01    0.00    0.00    9.71    2.57    0.00    0.00    0.38     0.5     0.6    0.72    1.14    1.24    1.08    0.94    0.95    0.92    0.18    0.18    0.19    0.19    0.11    0.11    0.06    0.03    0.03    0.03    0.57    0.72    0.80    0.91    1.25    1.35    1.15    0.98    0.98    0.95
 2020 158    49     0     1    23.4    21.6     1.8     0.0   10.23   10.85    0.01    0.00    0.00   10.23    3.50    0.00    0.00    0.35     0.5     0.5    0.58    0.99    1.27    1.10    0.95    0.95    0.93    0.18    0.18    0.18    0.19    0.11    0.11    0.06    0.03    0.03    0.03    0.53    0.64    0.69    0.77    1.10    1.38    1.17    0.99    0.99    0.96
 2020 159    50     0     1    23.0    21.2     1.8     0.0   10.75   11.37    0.01    0.00    0.00   10.75    4.44    0.00    0.00    0.32     0.4     0.4    0.48    0.79    1.30    1.12    0.96    0.96    0.93    0.18    0.18    0.18    0.18    0.11    0.11    0.06    0.03    0.03    0.03    0.50    0.57    0.61    0.66    0.91    1.41    1.19    1.00    1.00    0.97
 2020 160    51     0     1    22.1    20.3     1.8     0.0   11.30   11.92    0.01    0.00    0.00   11.30    5.84    0.00    0.00    0.32     0.3     0.3    0.31    0.41    1.33    1.14    0.97    0.97    0.94    0.18    0.18    0.18    0.18    0.11    0.11    0.06    0.04    0.03    0.03    0.50    0.49    0.49    0.49    0.52    1.44    1.21    1.01    1.01    0.97
 2020 161    52     0     1    22.1    20.4     1.8     0.0   11.87   12.50    0.01    0.00    0.00   11.87    6.39    0.00    0.00    0.32     0.3     0.3    0.31    0.29    1.36    1.17    0.98    0.98    0.95    0.17    0.18    0.18    0.18    0.11    0.11    0.06    0.04    0.03    0.03    0.49    0.49    0.49    0.49    0.40    1.48    1.23    1.02    1.02    0.98
 2020 162    53     0     1    21.1    19.4     1.8     0.0   12.39   13.01    0.02    0.00    0.00   12.39    7.90    0.00    0.00    0.31     0.3     0.3    0.30    0.28    0.77    1.19    0.99    0.99    0.96    0.17    0.18    0.18    0.18    0.11    0.11    0.06    0.04    0.04    0.03    0.48    0.48    0.48    0.49    0.39    0.88    1.25    1.03    1.03    0.99
 2020 163    54     0     1    20.6    18.8     1.8     0.0   12.87   13.48    0.02    0.00    0.00   12.87    8.88    0.00    0.00    0.31     0.3     0.3    0.30    0.28    0.43    1.20    1.00    1.00    0.96    0.18    0.18    0.18    0.18    0.11    0.11    0.06    0.04    0.04    0.03    0.48    0.48    0.48    0.48    0.39    0.55    1.27    1.04    1.03    1.00
 2020 164    55     0     1    20.4    18.7     1.8     0.0   13.30   13.90    0.02    0.00    0.00   13.30    9.48    0.00    0.00    0.30     0.3     0.3    0.29    0.28    0.27    1.22    1.01    1.01    0.97    0.18    0.18    0.18    0.18    0.11    0.11    0.06    0.04    0.04    0.03    0.48    0.48    0.48    0.48    0.39    0.39    1.28    1.05    1.04    1.00
 2020 165    56     0     1    20.6    18.8     1.8     0.0   13.68   14.28    0.02    0.00    0.00   13.68    9.75    0.00    0.00    0.29     0.3     0.3    0.29    0.27    0.27    1.23    1.02    1.01    0.98    0.18    0.18    0.18    0.18    0.11    0.11    0.06    0.04    0.03    0.03    0.48    0.47    0.47    0.47    0.39    0.39    1.30    1.05    1.05    1.01
 2020 166    57     0     1    20.7    18.9     1.8     0.0   14.06   14.65    0.02    0.00    0.00   14.06    9.99    0.00    0.00    0.29     0.3     0.3    0.29    0.27    0.27    1.25    1.02    1.02    0.98    0.18    0.18    0.18    0.19    0.11    0.11    0.06    0.03    0.03    0.03    0.48    0.47    0.47    0.47    0.39    0.39    1.31    1.06    1.05    1.02
 2020 167    58     0     1    19.7    17.9     1.8     0.0   14.51   15.10    0.02    0.00    0.00   14.51   11.48    0.00    0.00    0.30     0.3     0.3    0.30    0.28    0.28    0.95    1.03    1.03    0.99    0.18    0.18    0.19    0.19    0.11    0.11    0.06    0.04    0.03    0.03    0.49    0.49    0.48    0.48    0.39    0.39    1.01    1.07    1.06    1.02
 2020 168    59     0     1    18.3    16.6     1.8     0.0   15.03   15.62    0.02    0.00    0.00   15.03   13.31    0.00    0.00    0.31     0.3     0.3    0.31    0.28    0.28    0.58    1.04    1.04    1.00    0.18    0.18    0.18    0.18    0.11    0.11    0.06    0.04    0.03    0.03    0.49    0.49    0.49    0.49    0.40    0.39    0.64    1.08    1.07    1.03
 2020 169    60     0     1    17.5    15.7     1.8     0.0   15.60   16.21    0.02    0.00    0.00   15.60   14.71    0.00    0.00    0.32     0.3     0.3    0.31    0.29    0.28    0.33    1.05    1.05    1.00    0.17    0.18    0.18    0.18    0.11    0.11    0.06    0.04    0.04    0.03    0.49    0.50    0.50    0.49    0.40    0.40    0.39    1.09    1.08    1.04
 2020 170    61     0     1    17.4    15.7     1.7     0.0   16.20   16.83    0.02    0.00    0.00   16.20   15.40    0.00    0.00    0.33     0.3     0.3    0.32    0.29    0.29    0.27    1.07    1.06    1.01    0.16    0.17    0.18    0.18    0.11    0.11    0.06    0.04    0.04    0.03    0.49    0.49    0.50    0.50    0.40    0.40    0.34    1.10    1.09    1.05
 2020 171    62     0     1    17.5    15.8     1.7     0.0   16.78   17.43    0.02    0.00    0.00   16.78   15.90    0.00    0.00    0.32     0.3     0.3    0.31    0.29    0.28    0.27    1.08    1.07    1.02    0.16    0.17    0.17    0.18    0.11    0.11    0.06    0.04    0.04    0.04    0.47    0.48    0.49    0.49    0.40    0.40    0.34    1.11    1.10    1.06
 2020 172    63     0     1    17.6    15.8     1.7     0.0   17.31   17.96    0.02    0.00    0.00   17.31   16.38    0.00    0.00    0.31     0.3     0.3    0.31    0.28    0.28    0.27    1.09    1.08    1.03    0.16    0.16    0.17    0.18    0.11    0.11    0.06    0.04    0.04    0.04    0.46    0.47    0.48    0.48    0.39    0.39    0.33    1.12    1.11    1.07
 2020 173    64     0     1    17.6    15.9     1.7     0.0   17.80   18.43    0.02    0.00    0.00   17.80   16.79    0.00    0.00    0.30     0.3     0.3    0.30    0.28    0.28    0.27    1.10    1.09    1.04    0.16    0.16    0.17    0.18    0.11    0.11    0.06    0.04    0.04    0.04    0.46    0.46    0.48    0.48    0.39    0.39    0.33    1.13    1.12    1.07
 2020 174    65     0     1    17.7    16.0     1.7     0.0   18.26   18.89    0.02    0.00    0.00   18.26   17.16    0.00    0.00    0.30     0.3     0.3    0.30    0.28    0.28    0.27    1.11    1.10    1.05    0.16    0.16    0.17    0.18    0.11    0.11    0.06    0.04    0.04    0.04    0.46    0.46    0.47    0.48    0.39    0.39    0.33    1.14    1.13    1.08
 2020 175    66     0     1    17.8    16.0     1.7     0.0   18.67   19.31    0.02    0.00    0.00   18.67   17.52    0.00    0.00    0.29     0.3     0.3    0.29    0.28    0.27    0.27    1.11    1.10    1.05    0.16    0.16    0.17    0.18    0.11    0.11    0.06    0.04    0.04    0.03    0.45    0.45    0.47    0.47    0.39    0.39    0.33    1.15    1.14    1.09
 2020 176    67     0     1    17.8    16.1     1.7     0.0   19.07   19.72    0.02    0.00    0.00   19.07   17.84    0.00    0.00    0.29     0.3     0.3    0.29    0.28    0.27    0.27    1.12    1.11    1.06    0.16    0.16    0.17    0.18    0.11    0.11    0.06    0.04    0.04    0.03    0.46    0.45    0.47    0.47    0.39    0.39    0.33    1.16    1.15    1.10
 2020 177    68     0     1    17.9    16.2     1.7     0.0   19.50   20.15    0.02    0.00    0.00   19.50   18.17    0.00    0.00    0.30     0.3     0.3    0.30    0.28    0.28    0.27    1.13    1.12    1.07    0.16    0.16    0.17    0.18    0.11    0.11    0.06    0.04    0.04    0.03    0.46    0.45    0.47    0.47    0.39    0.39    0.33    1.16    1.15    1.10
 2020 178    69     0     1    18.0    16.3     1.7     0.0   19.96   20.62    0.02    0.00    0.00   19.96   18.52    0.00    0.00    0.30     0.3     0.3    0.30    0.28    0.28    0.27    1.13    1.13    1.08    0.16    0.15    0.17    0.17    0.11    0.11    0.06    0.04    0.04    0.03    0.46    0.45    0.47    0.47    0.39    0.39    0.33    1.17    1.16    1.11
 2020 179    70     0     1    18.1    16.4     1.7     0.0   20.41   21.09    0.02    0.00    0.00   20.41   18.90    0.00    0.00    0.30     0.3     0.3    0.30    0.28    0.28    0.27    1.13    1.14    1.08    0.16    0.15    0.16    0.17    0.11    0.11    0.06    0.04    0.04    0.03    0.46    0.45    0.46    0.47    0.39    0.39    0.33    1.17    1.17    1.12
 2020 180    71     0     1    18.2    16.5     1.7     0.0   20.89   21.59    0.02    0.00    0.00   20.89   19.30    0.00    0.00    0.30     0.3     0.3    0.30    0.28    0.28    0.27    1.13    1.15    1.09    0.15    0.14    0.16    0.17    0.11    0.11    0.06    0.04    0.04    0.04    0.46    0.44    0.46    0.47    0.39    0.39    0.33    1.16    1.18    1.13
 2020 181    72     0     1    18.3    16.6     1.6     0.0   21.40   22.14    0.02    0.00    0.00   21.40   19.72    0.00    0.00    0.31     0.3     0.3    0.31    0.28    0.28    0.27    1.12    1.16    1.10    0.14    0.14    0.15    0.16    0.10    0.11    0.06    0.04    0.04    0.04    0.45    0.44    0.46    0.47    0.39    0.39    0.33    1.16    1.19    1.14
 2020 182    73     0     1    18.4    16.8     1.6     0.0   21.93   22.70    0.02    0.00    0.00   21.93   20.17    0.00    0.00    0.31     0.3     0.3    0.31    0.29    0.28    0.27    1.12    1.17    1.11    0.13    0.13    0.14    0.15    0.10    0.11    0.06    0.04    0.04    0.04    0.44    0.44    0.45    0.46    0.39    0.39    0.34    1.16    1.20    1.15
 2020 183    74     0     1    18.4    16.8     1.6     0.0   22.41   23.21    0.02    0.00    0.00   22.41   20.64    0.00    0.00    0.30     0.3     0.3    0.30    0.28    0.28    0.27    1.12    1.18    1.12    0.13    0.13    0.14    0.15    0.10    0.11    0.06    0.04    0.04    0.04    0.43    0.42    0.44    0.45    0.38    0.39    0.33    1.15    1.21    1.16
 2020 184    75     0     1    18.4    16.8     1.6     0.0   22.87   23.68    0.02    0.00    0.00   22.87   21.07    0.00    0.00    0.30     0.3     0.3    0.30    0.28    0.28    0.27    1.11    1.19    1.13    0.13    0.12    0.14    0.15    0.10    0.11    0.06    0.04    0.04    0.04    0.42    0.42    0.43    0.44    0.38    0.39    0.33    1.14    1.22    1.16