*GROWTH ASPECTS OUTPUT FILE

*DSSAT Cropping System Model Ver. 4.8.2.000 -release  JUN 25, 2025 18:37:00

*RUN   1        : farm_23                   MZCER048 UNLI2309    1
 MODEL          : MZCER048 - Maize
 EXPERIMENT     : UNLI2309 MZ PIO1366
 DATA PATH      :
 TREATMENT  1   : farm_23                   MZCER048
  
!                                                                                                                                                                                                                                      Root Dens. (cm/cm3) by soil depth (cm):
!                                                                                                                                                                                                                                      0-5    5-15   15-23   23-31   31-46   46-61   61-91  91-106 106-122 122-183
@YEAR DOY   DAS   DAP   L#SD   GSTD   LAID   LWAD   SWAD   GWAD   RWAD   VWAD   CWAD   G#AD   GWGD   HIAD   PWAD   P#AD   WSPD   WSGD   NSTD   EWSD  PST1A  PST2A   KSTD   LN%D   SH%D   HIPD   PWDD   PWTD     SLAD   CHTD   CWID   RDPD    RL1D    RL2D    RL3D    RL4D    RL5D    RL6D    RL7D    RL8D    RL9D   RL10D   CDAD   LDAD   SDAD   SNW0C   SNW1C  DTTD
 2020 122    13     0    0.0      0   0.00      0      0      0      0      0      0      0    0.0  0.000      0      0  0.000  0.000  0.000  0.000  0.000  0.000  0.000   0.00   0.00   0.00      0      0      0.0   0.00   0.00   0.05    0.00    0.00    0.00    0.00    0.00    0.00    0.00    0.00    0.00    0.00      0      0      0       0       0 14.76
 2020 123    14     1    0.0      0   0.00      0      0      0      0      0      0      0    0.0  0.000      0      0  0.000  0.000  0.000  0.000  0.000  0.000  0.000   0.00   0.00   0.00      0      0      0.0   0.00   0.00   0.06    0.00    0.00    0.00    0.00    0.00    0.00    0.00    0.00    0.00    0.00      0      0      0       0       0  6.16
 2020 124    15     2    0.0      0   0.00      0      0      0      0      0      0      0    0.0  0.000      0      0  0.000  0.000  0.000  0.000  0.000  0.000  0.000   0.00   0.00   0.00      0      0      0.0   0.00   0.00   0.07    0.00    0.00    0.00    0.00    0.00    0.00    0.00    0.00    0.00    0.00      0      0      0       0       0  7.47
 2020 125    16     3    0.0      0   0.00      0      0      0      0      0      0      0    0.0  0.000      0      0  0.000  0.000  0.000  0.000  0.000  0.000  0.000   0.00   0.00   0.00      0      0      0.0   0.00   0.00   0.07    0.00    0.00    0.00    0.00    0.00    0.00    0.00    0.00    0.00    0.00      0      0      0       0       0  2.44
 2020 126    17     4    0.0      0   0.00      0      0      0      0      0      0      0    0.0  0.000      0      0  0.000  0.000  0.000  0.000  0.000  0.000  0.000   0.00   0.00   0.00      0      0      0.0   0.00   0.00   0.08    0.00    0.00    0.00    0.00    0.00    0.00    0.00    0.00    0.00    0.00      0      0      0       0       0  5.33
 2020 127    18     5    0.0      0   0.00      0      0      0      0      0      0      0    0.0  0.000      0      0  0.000  0.000  0.000  0.000  0.000  0.000  0.000   0.00   0.00   0.00      0      0      0.0   0.00   0.00   0.09    0.00    0.00    0.00    0.00    0.00    0.00    0.00    0.00    0.00    0.00      0      0      0       0       0  3.26
 2020 128    19     6    0.0      0   0.00      0      0      0      0      0      0      0    0.0  0.000      0      0  0.000  0.000  0.000  0.000  0.000  0.000  0.000   0.00   0.00   0.00      0      0      0.0   0.00   0.00   0.10    0.00    0.00    0.00    0.00    0.00    0.00    0.00    0.00    0.00    0.00      0      0      0       0       0  6.64
 2020 129    20     7    0.0      0   0.00      0      0      0      0      0      0      0    0.0  0.000      0      0  0.000  0.000  0.000  0.000  0.000  0.000  0.000   0.00   0.00   0.00      0      0      0.0   0.00   0.00   0.10    0.00    0.00    0.00    0.00    0.00    0.00    0.00    0.00    0.00    0.00      0      0      0       0       0  2.95
 2020 130    21     8    0.0      0   0.00      0      0      0      0      0      0      0    0.0  0.000      0      0  0.000  0.000  0.000  0.000  0.000  0.000  0.000   0.00   0.00   0.00      0      0      0.0   0.00   0.00   0.10    0.00    0.00    0.00    0.00    0.00    0.00    0.00    0.00    0.00    0.00      0      0      0       0       0  2.13
 2020 131    22     9    0.0      0   0.00      0      0      0      0      0      0      0    0.0  0.000      0      0  0.000  0.000  0.000  0.000  0.000  0.000  0.000   0.00   0.00   0.00      0      0      0.0   0.00   0.00   0.11    0.00    0.00    0.00    0.00    0.00    0.00    0.00    0.00    0.00    0.00      0      0      0       0       0  1.13
 2020 132    23    10    0.0      0   0.00      0      0      0      0      0      0      0    0.0  0.000      0      0  0.000  0.000  0.000  0.000  0.000  0.000  0.000   0.00   0.00   0.00      0      0      0.0   0.00   0.00   0.11    0.00    0.00    0.00    0.00    0.00    0.00    0.00    0.00    0.00    0.00      0      0      0       0       0  0.00
 2020 133    24    11    0.0      0   0.00      0      0      0      0      0      0      0    0.0  0.000      0      0  0.000  0.000  0.000  0.000  0.000  0.000  0.000   0.00   0.00   0.00      0      0      0.0   0.00   0.00   0.11    0.00    0.00    0.00    0.00    0.00    0.00    0.00    0.00    0.00    0.00      0      0      0       0       0  0.00
 2020 134    25    12    0.0      0   0.00      0      0      0      0      0      0      0    0.0  0.000      0      0  0.000  0.000  0.000  0.000  0.000  0.000  0.000   0.00   0.00   0.00      0      0      0.0   0.00   0.00   0.11    0.00    0.00    0.00    0.00    0.00    0.00    0.00    0.00    0.00    0.00      0      0      0       0       0  2.57
 2020 135    26    13    0.0      0   0.00      0      0      0      0      0      0      0    0.0  0.000      0      0  0.000  0.000  0.000  0.000  0.000  0.000  0.000   0.00   0.00   0.00      0      0      0.0   0.00   0.00   0.12    0.00    0.00    0.00    0.00    0.00    0.00    0.00    0.00    0.00    0.00      0      0      0       0       0  8.38
 2020 136    27    14    0.0      0   0.00      0      0      0      0      0      0      0    0.0  0.000      0      0  0.000  0.000  0.000  0.000  0.000  0.000  0.000   0.00   0.00   0.00      0      0      0.0   0.00   0.00   0.13    0.00    0.00    0.00    0.00    0.00    0.00    0.00    0.00    0.00    0.00      0      0      0       0       0  6.45
 2020 137    28    15    0.0      0   0.00      0      0      0      0      0      0      0    0.0  0.000      0      0  0.000  0.000  0.000  0.000  0.000  0.000  0.000   0.00   0.00   0.00      0      0      0.0   0.00   0.00   0.14    0.00    0.00    0.00    0.00    0.00    0.00    0.00    0.00    0.00    0.00      0      0      0       0       0  7.59
 2020 138    29    16    0.0      0   0.00      0      0      0      0      0      0      0    0.0  0.000      0      0  0.000  0.000  0.000  0.000  0.000  0.000  0.000   0.00   0.00   0.00      0      0      0.0   0.00   0.00   0.15    0.00    0.00    0.00    0.00    0.00    0.00    0.00    0.00    0.00    0.00      0      0      0       0       0  4.43
 2020 139    30    17    0.0      0   0.00      0      0      0      0      0      0      0    0.0  0.000      0      0  0.000  0.000  0.000  0.000  0.000  0.000  0.000   0.00   0.00   0.00      0      0      0.0   0.00   0.00   0.16    0.00    0.00    0.00    0.00    0.00    0.00    0.00    0.00    0.00    0.00      0      0      0       0       0  5.76
 2020 140    31    18    1.0      1   0.00     12     12      0     12     24     24      0    0.0  0.000      0      0  0.000  0.000  0.014  0.000  0.000  0.000  0.000   4.40   0.00   0.00      0      0     15.3   0.00   0.00   0.17    0.24    0.12    0.02    0.00    0.00    0.00    0.00    0.00    0.00    0.00      0      0      0       0       0  9.56
 2020 141    32    19    2.0      1   0.00     12     12      0     12     24     24      0    0.0  0.000      0      0  0.000  0.000  0.016  0.000  0.000  0.000  0.000   4.40   0.00   0.00      0      0     29.4   0.00   0.00   0.18    0.24    0.12    0.02    0.00    0.00    0.00    0.00    0.00    0.00    0.00      0      0      0       0       0 11.36
 2020 142    33    20    2.0      1   0.00     12     12      0     12     24     24      0    0.0  0.000      0      0  0.000  0.000  0.014  0.000  0.000  0.000  0.000   4.40   0.00   0.00      0      0     38.8   0.00   0.00   0.19    0.24    0.12    0.02    0.00    0.00    0.00    0.00    0.00    0.00    0.00      0      0      0       0       0  7.20
 2020 143    34    21    2.0      1   0.01     12     12      0     13     24     24      0    0.0  0.000      0      0  0.000  0.000  0.011  0.000  0.000  0.000  0.000   4.40   0.00   0.00      0      0     52.1   0.00   0.00   0.20    0.24    0.12    0.02    0.00    0.00    0.00    0.00    0.00    0.00    0.00      0      0      0       0       0  9.32
 2020 144    35    22    2.0      1   0.01     12     12      0     13     24     24      0    0.0  0.000      0      0  0.000  0.000  0.007  0.000  0.000  0.000  0.000   4.40   0.00   0.00      0      0     67.5   0.00   0.00   0.21    0.25    0.13    0.03    0.00    0.00    0.00    0.00    0.00    0.00    0.00      0      0      0       0       0  9.91
 2020 145    36    23    3.0      1   0.01     12     12      0     14     24     24      0    0.0  0.000      0      0  0.000  0.000  0.004  0.000  0.000  0.000  0.000   4.40   0.00   0.00      0      0     81.6   0.01   0.00   0.22    0.25    0.13    0.03    0.00    0.00    0.00    0.00    0.00    0.00    0.00      0      0      0       0       0  8.68
 2020 146    37    24    3.0      1   0.01     12     12      0     15     24     24      0    0.0  0.000      0      0  0.000  0.000  0.003  0.000  0.000  0.000  0.000   4.40   0.00   0.00      0      0     88.9   0.01   0.00   0.22    0.25    0.14    0.04    0.00    0.00    0.00    0.00    0.00    0.00    0.00      0      0      0       0       0  4.56
 2020 147    38    25    3.0      1   0.01     12     12      0     17     24     24      0    0.0  0.000      0      0  0.000  0.000  0.000  0.000  0.000  0.000  0.000   4.40   0.00   0.00      0      0     97.6   0.01   0.00   0.23    0.26    0.15    0.07    0.00    0.00    0.00    0.00    0.00    0.00    0.00      0      0      0       0       0  8.31
 2020 148    39    26    3.0      1   0.01     12     12      0     19     24     24      0    0.0  0.000      0      0  0.000  0.000  0.000  0.000  0.000  0.000  0.000   4.40   0.00   0.00      0      0    118.7   0.01   0.00   0.24    0.28    0.16    0.09    0.00    0.00    0.00    0.00    0.00    0.00    0.00      0      0      0       0       0 11.28
 2020 149    40    27    3.0      1   0.02     12     12      0     21     24     24      0    0.0  0.000      0      0  0.000  0.000  0.000  0.000  0.000  0.000  0.000   4.40   0.00   0.00      0      0    139.8   0.01   0.00   0.25    0.28    0.17    0.12    0.01    0.00    0.00    0.00    0.00    0.00    0.00      0      0      0       0       0 10.76
 2020 150    41    28    4.0      1   0.03     12     12      0     24     24     24      0    0.0  0.000      0      0  0.000  0.000  0.000  0.000  0.000  0.000  0.000   4.30   0.00   0.00      0      0    216.7   0.01   0.00   0.26    0.29    0.18    0.15    0.03    0.00    0.00    0.00    0.00    0.00    0.00      0      0      0       0       0 11.70
 2020 151    42    29    4.0      1   0.04     12     12      0     28     24     24      0    0.0  0.000      0      0  0.000  0.000  0.000  0.000  0.000  0.000  0.000   4.27   0.00   0.00      0      0    311.5   0.02   0.00   0.27    0.30    0.19    0.19    0.07    0.00    0.00    0.00    0.00    0.00    0.00      0      0      0       0       0 12.85
 2020 152    43    30    4.0      1   0.05     16     12      0     31     28     28      0    0.0  0.000      0      0  0.000  0.000  0.000  0.000  0.000  0.000  0.000   3.54   0.00   0.00      0      0    320.1   0.03   0.00   0.29    0.31    0.20    0.22    0.11    0.00    0.00    0.00    0.00    0.00    0.00      0      0      0       0       0 15.72
 2020 153    44    31    5.0      1   0.08     26     12      0     35     38     38      0    0.0  0.000      0      0  0.000  0.000  0.000  0.000  0.000  0.000  0.000   3.12   0.00   0.00      0      0    292.3   0.04   0.00   0.31    0.32    0.20    0.24    0.16    0.00    0.00    0.00    0.00    0.00    0.00      0      0      0       0       1 20.40
 2020 154    45    32    5.0      1   0.10     36     12      0     41     48     48      0    0.0  0.000      0      0  0.000  0.000  0.000  0.000  0.000  0.000  0.000   3.22   0.00   0.00      0      0    272.6   0.06   0.00   0.33    0.33    0.21    0.28    0.23    0.00    0.00    0.00    0.00    0.00    0.00      0      0      0       0       1 18.70
 2020 155    46    33    6.0      1   0.12     46     12      0     51     58     58      0    0.0  0.000      0      0  0.000  0.000  0.000  0.000  0.000  0.000  0.000   3.37   0.00   0.00      0      0    259.2   0.07   0.00   0.34    0.35    0.24    0.33    0.35    0.02    0.00    0.00    0.00    0.00    0.00      0      0      0       0       1 15.58
 2020 156    47    34    6.0      2   0.15     57     12      0     65     69     69      0    0.0  0.000      0      0  0.000  0.000  0.000  0.000  0.000  0.000  0.000   3.40   0.00   0.00      0      0    265.2   0.09   0.00   0.36    0.39    0.28    0.37    0.46    0.08    0.00    0.00    0.00    0.00    0.00      0      0      0       0       1 17.87
 2020 157    48    35    6.0      2   0.19     74     12      0     82     86     86      0    0.0  0.000      0      0  0.000  0.000  0.003  0.000  0.000  0.000  0.000   3.25   0.00   0.00      0      0    251.3   0.11   0.00   0.40    0.44    0.33    0.43    0.52    0.20    0.00    0.00    0.00    0.00    0.00      0      0      0       0       1 17.91
 2020 158    49    36    7.0      2   0.23     99     12      0     94    110    110      0    0.0  0.000      0      0  0.000  0.000  0.000  0.000  0.000  0.000  0.000   3.13   0.00   0.00      0      0    237.0   0.13   0.00   0.44    0.48    0.37    0.46    0.55    0.28    0.00    0.00    0.00    0.00    0.00      0      0      0       0       2 21.14
 2020 159    50    37    7.0      2   0.29    129     12      0    115    141    141      0    0.0  0.000      0      0  0.000  0.000  0.000  0.000  0.000  0.000  0.000   3.11   0.00   0.00      0      0    224.1   0.16   0.00   0.49    0.56    0.45    0.55    0.64    0.38    0.00    0.00    0.00    0.00    0.00      0      0      0       0       2 22.28
 2020 160    51    38    8.0      2   0.34    158     12      0    143    170    170      0    0.0  0.000      0      0  0.000  0.000  0.000  0.000  0.000  0.000  0.000   3.40   0.00   0.00      0      0    215.0   0.19   0.00   0.52    0.63    0.52    0.61    0.70    0.44    0.16    0.00    0.00    0.00    0.00      0      0      0       0       3 18.04
 2020 161    52    39    8.0      2   0.36    168     12      0    144    180    180      0    0.0  0.000      0      0  0.000  0.000  0.000  0.000  0.000  0.000  0.000   3.86   0.00   0.00      0      0    212.2   0.20   0.00   0.53    0.63    0.52    0.61    0.70    0.44    0.17    0.00    0.00    0.00    0.00      0      0      0       0       4  6.69
 2020 162    53    40    8.0      3   0.39    187     12      0    194    199    199      0    0.0  0.000      0      0  0.000  0.000  0.000  0.000  0.000  0.000  0.000   3.74   0.00   0.00      0      0    206.5   0.22   0.00   0.56    0.77    0.66    0.75    0.84    0.59    0.38    0.00    0.00    0.00    0.00      0      0      0       0       4 10.68
 2020 163    54    41    8.0      3   0.43    213     12      0    244    225    225      0    0.0  0.000      0      0  0.000  0.000  0.000  0.000  0.000  0.000  0.000   3.54   0.00   0.00      0      0    201.8   0.24   0.00   0.58    0.94    0.83    0.92    1.01    0.75    0.52    0.00    0.00    0.00    0.00      0      0      0       0       5 13.04
 2020 164    55    42    9.0      3   0.49    248     12      0    295    260    260      0    0.0  0.000      0      0  0.000  0.000  0.000  0.000  0.000  0.000  0.000   3.13   0.00   0.00      0      0    196.2   0.27   0.00   0.62    1.10    0.99    1.08    1.17    0.92    0.69    0.00    0.00    0.00    0.00      0      0      0       0       7 16.40
 2020 165    56    43    9.0      3   0.55    287     13      0    349    300    300      0    0.0  0.000      0      0  0.000  0.000  0.011  0.000  0.000  0.000  0.000   2.76   0.00   0.00      0      0    190.8   0.31   0.00   0.65    1.24    1.13    1.22    1.31    1.06    0.83    0.07    0.00    0.00    0.00      0      0      0       0       8 16.65
 2020 166    57    44    9.0      3   0.62    337     16      0    384    353    353      0    0.0  0.000      0      0  0.000  0.000  0.067  0.000  0.000  0.000  0.000   2.65   0.00   0.00      0      0    183.7   0.35   0.00   0.69    1.31    1.20    1.29    1.38    1.13    0.91    0.15    0.00    0.00    0.00      0      0      0       0      10 21.97
 2020 167    58    45   10.0      3   0.69    392     20      0    433    412    412      0    0.0  0.000      0      0  0.000  0.000  0.071  0.000  0.000  0.000  0.000   2.59   0.00   0.00      0      0    177.2   0.39   0.00   0.74    1.44    1.33    1.42    1.51    1.26    1.04    0.21    0.00    0.00    0.00      0      0      0       0      12 21.68
 2020 168    59    46   10.0      3   0.77    450     27      0    492    477    477      0    0.0  0.000      0      0  0.000  0.000  0.077  0.000  0.000  0.000  0.000   2.46   0.00   0.00      0      0    171.2   0.43   0.00   0.78    1.58    1.48    1.57    1.65    1.41    1.18    0.29    0.00    0.00    0.00      0      0      0       0      14 20.94
 2020 169    60    47   11.0      3   0.85    513     37      0    548    550    550      0    0.0  0.000      0      0  0.000  0.000  0.098  0.000  0.000  0.000  0.000   2.23   0.00   0.00      0      0    165.4   0.48   0.00   0.82    1.71    1.61    1.70    1.78    1.54    1.32    0.39    0.00    0.00    0.00      0      0      0       0      16 21.90
 2020 170    61    48   11.0      3   0.88    546     44      0    595    590    590      0    0.0  0.000      0      0  0.000  0.000  0.134  0.000  0.000  0.000  0.000   2.14   0.00   0.00      0      0    161.0   0.49   0.00   0.85    1.82    1.71    1.80    1.89    1.64    1.42    0.47    0.00    0.00    0.00      0      0      0       0      19 12.15
 2020 171    62    49   11.0      3   0.89    572     49      0    630    621    621      0    0.0  0.000      0      0  0.000  0.000  0.173  0.000  0.000  0.000  0.000   2.09   0.00   0.00      0      0    156.4   0.50   0.00   0.87    1.90    1.79    1.88    1.96    1.72    1.50    0.55    0.00    0.00    0.00      0      0      0       0      22 10.40
 2020 172    63    50   11.0      3   0.91    602     57      0    694    659    659      0    0.0  0.000      0      0  0.000  0.000  0.184  0.000  0.000  0.000  0.000   2.01   0.00   0.00      0      0    151.7   0.51   0.00   0.89    2.03    1.93    2.02    2.10    1.86    1.64    0.68    0.00    0.00    0.00      0      0      0       0      25 12.40
 2020 173    64    51   12.0      3   0.95    646     70      0    736    715    715      0    0.0  0.000      0      0  0.000  0.000  0.190  0.000  0.000  0.000  0.000   1.89   0.00   0.00      0      0    146.9   0.53   0.00   0.92    2.12    2.02    2.10    2.19    1.95    1.73    0.78    0.00    0.00    0.00      0      0      0       0      29 15.30
 2020 174    65    52   12.0      3   0.97    679     81      0    802    759    759      0    0.0  0.000      0      0  0.000  0.000  0.200  0.000  0.000  0.000  0.000   1.81   0.00   0.00      0      0    142.5   0.54   0.00   0.93    2.26    2.16    2.24    2.33    2.09    1.87    0.92    0.00    0.00    0.00      0      0      0       0      32 11.95
 2020 175    66    53   12.0      3   0.98    705     91      0    868    796    796      0    0.0  0.000      0      0  0.000  0.000  0.250  0.000  0.000  0.000  0.000   1.76   0.00   0.00      0      0    138.2   0.55   0.00   0.94    2.40    2.30    2.38    2.46    2.23    2.01    1.07    0.01    0.00    0.00      0      0      0       0      36 10.60
 2020 176    67    54   13.0      3   0.99    743    107      0    931    850    850      0    0.0  0.000      0      0  0.000  0.000  0.277  0.000  0.000  0.000  0.000   1.67   0.00   0.00      0      0    133.9   0.56   0.00   0.95    2.53    2.43    2.51    2.59    2.36    2.15    1.21    0.02    0.00    0.00      0      0      0       0      41 15.45
 2020 177    68    55   13.0      3   1.02    787    129      0    969    916    916      0    0.0  0.000      0      0  0.000  0.000  0.291  0.000  0.000  0.000  0.000   1.58   0.00   0.00      0      0    129.7   0.57   0.00   0.96    2.61    2.50    2.59    2.67    2.44    2.22    1.29    0.02    0.00    0.00      0      0      0       0      45 18.37
 2020 178    69    56   13.0      3   1.04    825    150      0   1024    975    975      0    0.0  0.000      0      0  0.000  0.000  0.318  0.000  0.000  0.000  0.000   1.51   0.00   0.00      0      0    125.7   0.58   0.00   0.97    2.72    2.62    2.70    2.78    2.55    2.34    1.41    0.03    0.00    0.00      0      0      0       0      50 16.35
 2020 179    70    57   14.0      3   1.15    945    182      0   1027   1127   1127      0    0.0  0.000      0      0  0.000  0.000  0.350  0.000  0.000  0.000  0.000   1.34   0.00   0.00      0      0    121.6   0.65   0.00   0.98    2.72    2.62    2.71    2.79    2.56    2.35    1.42    0.03    0.00    0.00      0      0      0       0      55 17.05
 2020 180    71    58   14.0      3   1.19   1007    257      0   1044   1264   1264      0    0.0  0.000      0      0  0.000  0.000  0.368  0.000  0.000  0.000  0.000   1.22   0.00   0.00      0      0    117.7   0.67   0.00   1.00    2.76    2.65    2.74    2.82    2.59    2.38    1.46    0.04    0.00    0.00      0      0      0       0      60 18.30
 2020 181    72    59   14.0      3   1.19   1048    326      0   1061   1373   1376      0    0.0  0.000      2      0  0.000  0.000  0.439  0.000  0.000  0.000  0.000   1.15   0.00   0.00      0      2    113.7   0.67   0.00   1.01    2.79    2.69    2.77    2.85    2.62    2.42    1.50    0.04    0.00    0.00      0      0      0       0      66 20.62
 2020 182    73    60   15.0      3   1.17   1064    356      0   1101   1420   1425      0    0.0  0.000      4      0  0.000  0.000  0.489  0.000  0.000  0.000  0.000   1.14   0.00   0.00      0      4    109.6   0.67   0.00   1.02    2.87    2.77    2.85    2.93    2.70    2.50    1.59    0.05    0.00    0.00      0      0      0       0      71 11.00
 2020 183    74    61   15.0      3   1.14   1079    385      0   1146   1464   1471      0    0.0  0.000      7      0  0.000  0.000  0.517  0.000  0.000  0.000  0.000   1.13   0.00   0.01      0      7    105.5   0.67   0.00   1.03    2.96    2.86    2.95    3.02    2.80    2.59    1.69    0.06    0.00    0.00      0      0      0       0      76 11.81
 2020 184    75    62   15.0      3   1.12   1098    427      0   1159   1525   1535      0    0.0  0.000     10      0  0.000  0.000  0.513  0.000  0.000  0.000  0.000   1.10   0.00   0.01      0     10    101.7   0.67   0.00   1.04    2.99    2.89    2.97    3.05    2.82    2.62    1.72    0.07    0.00    0.00      0      0      0       0      82 16.65
 2020 185    76    63   16.0      3   1.10   1116    469      0   1191   1585   1601      0    0.0  0.000     16      0  0.000  0.000  0.508  0.000  0.000  0.000  0.000   1.08   0.00   0.01      0     16     98.2   0.67   0.00   1.05    3.05    2.95    3.04    3.11    2.89    2.69    1.79    0.08    0.00    0.00      0      0      0       0      88 17.10
 2020 186    77    64   16.0      3   1.07   1131    507      0   1224   1638   1662      0    0.0  0.000     24      0  0.000  0.000  0.510  0.000  0.000  0.000  0.000   1.07   0.00   0.01      0     24     94.7   0.67   0.00   1.06    3.12    3.02    3.10    3.18    2.96    2.75    1.86    0.08    0.00    0.00      0      0      0       0      94 16.40
 2020 187    78    65   16.0      3   1.05   1147    546      0   1244   1693   1725      0    0.0  0.000     32      0  0.000  0.000  0.510  0.000  0.000  0.000  0.000   1.05   0.00   0.02      0     32     91.4   0.67   0.00   1.07    3.16    3.06    3.14    3.22    3.00    2.79    1.90    0.09    0.00    0.00      0      0      0       0     100 17.30
 2020 188    79    66   17.0      3   1.03   1162    584      0   1269   1747   1793      0    0.0  0.000     46      0  0.000  0.000  0.507  0.000  0.000  0.000  0.000   1.04   0.00   0.03      0     46     88.3   0.67   0.00   1.09    3.21    3.11    3.19    3.27    3.05    2.85    1.96    0.10    0.00    0.00      0      0      0       0     106 18.60
 2020 189    80    67   17.0      3   1.01   1179    621      0   1293   1800   1865      0    0.0  0.000     65      0  0.000  0.000  0.502  0.000  0.000  0.000  0.000   1.03   0.00   0.03      0     65     85.4   0.67   0.00   1.10    3.25    3.16    3.24    3.31    3.09    2.89    2.01    0.10    0.01    0.00      0      0      0       0     113 19.78
 2020 190    81    68   18.0      3   0.99   1194    652      0   1313   1846   1936      0    0.0  0.000     90      0  0.000  0.000  0.496  0.000  0.000  0.000  0.000   1.02   0.00   0.05      0     90     82.6   0.67   0.00   1.11    3.29    3.19    3.27    3.35    3.13    2.93    2.06    0.11    0.02    0.00      0      0      0       0     119 19.30
 2020 191    82    69   18.0      3   0.96   1205    663      0   1344   1867   1988      0    0.0  0.000    121      0  0.000  0.000  0.498  0.000  0.000  0.000  0.000   1.03   0.00   0.06      0    121     79.8   0.67   0.00   1.12    3.35    3.25    3.33    3.41    3.19    2.99    2.12    0.12    0.03    0.00      0      0      0       0     126 14.35
 2020 192    83    70   18.0      3   0.94   1218    675      0   1366   1893   2049      0    0.0  0.000    157      0  0.000  0.000  0.497  0.000  0.000  0.000  0.000   1.03   0.00   0.08      0    157     77.2   0.67   0.00   1.13    3.39    3.30    3.37    3.45    3.23    3.04    2.17    0.12    0.04    0.00      0      0      0       0     132 16.70
 2020 193    84    71   18.0      3   0.92   1230    675      0   1391   1904   2105      0    0.0  0.000    200      0  0.000  0.000  0.490  0.000  0.000  0.000  0.000   1.05   0.00   0.10      0    200     74.7   0.67   0.00   1.14    3.44    3.35    3.42    3.50    3.28    3.09    2.22    0.13    0.05    0.00      0      0      0       0     139 14.80
 2020 194    85    72   18.0      3   0.90   1242    697      0   1412   1939   2163      0    0.0  0.000    223      0  0.000  0.000  0.484  0.000  0.000  0.000  0.000   1.05   0.00   0.10      0    223     72.3   0.67   0.00   1.15    3.48    3.38    3.46    3.53    3.32    3.13    2.27    0.14    0.06    0.00      0      0      0       0     146 15.05
 2020 195    86    73   18.0      3   0.88   1258    703      0   1421   1961   2237      0    0.0  0.000    276      0  0.000  0.000  0.472  0.000  0.000  0.000  0.000   1.06   0.00   0.12      0    276     70.2   0.67   0.00   1.17    3.49    3.40    3.48    3.55    3.34    3.14    2.29    0.14    0.07    0.00      0      0      0       0     153 18.70
 2020 196    87    74   18.0      3   0.86   1268    722      0   1426   1991   2286      0    0.0  0.000    296      0  0.000  0.000  0.468  0.000  0.000  0.000  0.000   1.06   0.00   0.13      0    296     68.1   0.67   0.00   1.18    3.50    3.41    3.48    3.56    3.35    3.15    2.30    0.14    0.08    0.00      0      0      0       0     160 12.25
 2020 197    88    75   18.0      4   0.83   1252    802      0   1423   2055   2368      0    0.0  0.000    313      0  0.000  0.000  0.461  0.000  0.000  0.000  0.000   1.04   0.00   0.13      0    313     66.5   0.67   0.00   1.19    3.49    3.40    3.47    3.55    3.34    3.14    2.30    0.14    0.08    0.00      0      0      0       0     167 14.85
 2020 198    89    76   18.0      4   0.80   1235    886      0   1420   2122   2456      0    0.0  0.000    335      0  0.000  0.000  0.455  0.000  0.000  0.000  0.000   1.03   0.00   0.14      0    335     65.0   0.67   0.00   1.20    3.48    3.39    3.47    3.54    3.33    3.14    2.30    0.14    0.08    0.00      0      0      0       0     175 17.30
 2020 199    90    77   18.0      4   0.77   1216    974      0   1418   2190   2548      0    0.0  0.000    358      0  0.000  0.000  0.458  0.000  0.000  0.000  0.000   1.01   0.00   0.14      0    358     63.6   0.67   0.00   1.21    3.47    3.38    3.46    3.53    3.32    3.13    2.29    0.14    0.08    0.00      0      0      0       0     182 20.12
 2020 200    91    78   18.0      4   0.75   1196   1025      0   1414   2221   2594      0    0.0  0.000    373      0  0.000  0.000  0.461  0.000  0.000  0.000  0.000   1.02   0.00   0.14      0    373     62.4   0.67   0.00   1.22    3.46    3.37    3.45    3.52    3.31    3.12    2.29    0.14    0.08    0.00      0      0      0       0     189 16.45
 2020 201    92    79   18.0      4   0.72   1175   1094      0   1411   2269   2662      0    0.0  0.000    393      0  0.000  0.000  0.464  0.000  0.000  0.000  0.000   1.01   0.00   0.15      0    393     61.2   0.67   0.00   1.23    3.45    3.36    3.44    3.51    3.30    3.11    2.28    0.14    0.08    0.00      0      0      0       0     196 15.45