*SOIL-PLANT-ATMOSPHERE MODULE OUTPUT FILE

*DSSAT Cropping System Model Ver. 4.8.2.000 -release  JUN 25, 2025 18:37:00

*RUN   1        : farm_23                   MZCER048 UNLI2309    1
 MODEL          : MZCER048 - Maize
 EXPERIMENT     : UNLI2309 MZ PIO1366
 DATA PATH      :
 TREATMENT  1   : farm_23                   MZCER048
  
@YEAR DOY   DAS   SRAA  TMAXA  TMINA    REFA    EOAA    EOPA    EOSA    ETAA    EPAA    ESAA    EFAA    EMAA    EOAC    ETAC    EPAC    ESAC    EFAC    EMAC    KCAA    KBSA    KEAA
 2020 110     1  23.50  16.50   0.00   1.924   2.318   0.000   2.318   0.859   0.000   0.282   0.000   0.578    2.32    0.86    0.00    0.28    0.00    0.58   0.447   0.000   0.447 
 2020 111     2  22.70  18.90   1.60   1.651   1.990   0.000   1.990   0.947   0.000   0.000   0.000   0.947    4.31    1.81    0.00    0.28    0.00    1.52   0.574   0.000   0.574 
 2020 112     3  25.00  23.10  -2.00   1.676   2.020   0.000   2.020   1.119   0.000   0.000   0.000   1.119    6.33    2.93    0.00    0.28    0.00    2.64   0.668   0.000   0.668 
 2020 113     4  23.80  24.10   4.00   1.809   2.180   0.000   2.180   0.246   0.000   0.030   0.000   0.215    8.51    3.17    0.00    0.31    0.00    2.86   0.136   0.000   0.136 
 2020 114     5  22.40  23.30   2.30   1.694   2.041   0.000   2.041   0.230   0.000   0.189   0.000   0.041   10.55    3.40    0.00    0.50    0.00    2.90   0.136   0.000   0.136 
 2020 115     6  12.80  15.30   6.00   1.299   1.557   0.000   1.557   0.775   0.000   0.000   0.000   0.775   12.11    4.18    0.00    0.50    0.00    3.68   0.597   0.000   0.597 
 2020 116     7  25.80  17.40   2.70   1.838   2.215   0.000   2.215   1.965   0.000   0.000   0.000   1.965   14.32    6.14    0.00    0.50    0.00    5.64   1.069   0.000   1.069 
 2020 117     8  24.10  25.10   2.10   1.800   2.169   0.000   2.169   0.647   0.000   0.000   0.000   0.647   16.49    6.79    0.00    0.50    0.00    6.29   0.359   0.000   0.359 
 2020 118     9  26.30  27.00   7.30   2.073   2.499   0.000   2.499   0.282   0.000   0.157   0.000   0.124   18.99    7.07    0.00    0.66    0.00    6.41   0.136   0.000   0.136 
 2020 119    10  22.20  20.50  10.30   1.967   2.366   0.000   2.366   0.267   0.000   0.243   0.000   0.024   21.35    7.34    0.00    0.90    0.00    6.44   0.136   0.000   0.136 
 2020 120    11  27.50  20.90   6.40   2.048   2.468   0.000   2.468   0.278   0.000   0.274   0.000   0.005   23.82    7.61    0.00    1.17    0.00    6.44   0.136   0.000   0.136 
 2020 121    12  25.70  28.10   1.20   1.969   2.374   0.000   2.374   0.267   0.000   0.267   0.000   0.001   26.20    7.88    0.00    1.44    0.00    6.44   0.136   0.000   0.136 
 2020 122    13  26.30  29.20  12.40   2.257   2.720   0.000   2.720   0.307   0.000   0.306   0.000   0.000   28.92    8.19    0.00    1.75    0.00    6.44   0.136   0.000   0.136 
 2020 123    14  15.30  16.90  10.70   1.619   1.934   0.000   1.934   0.218   0.000   0.218   0.000   0.000   30.85    8.41    0.00    1.96    0.00    6.44   0.135   0.000   0.135 
 2020 124    15  20.30  21.70   6.70   1.866   2.244   0.000   2.244   1.992   0.000   0.000   0.000   1.992   33.10   10.40    0.00    1.96    0.00    8.43   1.067   0.000   1.067 
 2020 125    16   9.10  14.00   6.50   1.130   1.351   0.000   1.351   1.199   0.000   0.000   0.000   1.199   34.45   11.60    0.00    1.96    0.00    9.63   1.061   0.000   1.061 
 2020 126    17  24.30  19.20   4.30   1.953   2.353   0.000   2.353   2.088   0.000   0.000   0.000   2.088   36.80   13.68    0.00    1.96    0.00   11.72   1.069   0.000   1.069 
 2020 127    18  25.70  16.60   1.50   1.901   2.289   0.000   2.289   1.208   0.000   0.000   0.000   1.208   39.09   14.89    0.00    1.96    0.00   12.93   0.636   0.000   0.636 
 2020 128    19  27.00  20.60   4.90   2.131   2.569   0.000   2.569   0.289   0.000   0.057   0.000   0.232   41.66   15.18    0.00    2.02    0.00   13.16   0.136   0.000   0.136 
 2020 129    20  29.00  15.10   3.40   2.105   2.534   0.000   2.534   0.286   0.000   0.241   0.000   0.045   44.19   15.47    0.00    2.26    0.00   13.20   0.136   0.000   0.136 
 2020 130    21  17.70  15.10   2.30   1.529   1.843   0.000   1.843   0.208   0.000   0.199   0.000   0.009   46.03   15.68    0.00    2.46    0.00   13.21   0.136   0.000   0.136 
 2020 131    22  25.40  12.30  -2.30   1.731   2.084   0.000   2.084   0.235   0.000   0.233   0.000   0.002   48.12   15.91    0.00    2.70    0.00   13.21   0.136   0.000   0.136 
 2020 132    23   4.70   4.70   1.40   0.449   0.534   0.000   0.534   0.060   0.000   0.060   0.000   0.000   48.65   15.97    0.00    2.76    0.00   13.22   0.134   0.000   0.134 
 2020 133    24   6.80   8.00   2.10   0.728   0.867   0.000   0.867   0.098   0.000   0.098   0.000   0.000   49.52   16.07    0.00    2.85    0.00   13.22   0.134   0.000   0.134 
 2020 134    25  11.40  14.60   5.90   1.293   1.546   0.000   1.546   0.174   0.000   0.174   0.000   0.000   51.07   16.24    0.00    3.03    0.00   13.22   0.135   0.000   0.135 
 2020 135    26  25.60  23.70   4.80   2.190   2.639   0.000   2.639   0.297   0.000   0.297   0.000   0.000   53.70   16.54    0.00    3.32    0.00   13.22   0.136   0.000   0.136 
 2020 136    27  12.70  19.60   8.30   1.477   1.773   0.000   1.773   0.200   0.000   0.200   0.000   0.000   55.48   16.74    0.00    3.52    0.00   13.22   0.135   0.000   0.135 
 2020 137    28  17.90  20.00   9.70   1.872   2.245   0.000   2.245   1.992   0.000   0.000   0.000   1.992   57.72   18.73    0.00    3.52    0.00   15.21   1.064   0.000   1.064 
 2020 138    29  22.10  17.50   5.00   1.963   2.358   0.000   2.358   1.218   0.000   0.000   0.000   1.218   60.08   19.95    0.00    3.52    0.00   16.43   0.620   0.000   0.620 
 2020 139    30  26.10  20.80   2.50   2.161   2.603   0.000   2.603   0.293   0.000   0.059   0.000   0.234   62.68   20.24    0.00    3.58    0.00   16.66   0.136   0.000   0.136 
 2020 140    31  27.80  23.80   7.20   2.512   3.023   0.000   3.023   0.341   0.000   0.296   0.000   0.045   65.71   20.58    0.00    3.88    0.00   16.70   0.136   0.000   0.136 
 2020 141    32  27.70  24.10  11.50   4.231   5.083   0.004   5.079   0.577   0.004   0.564   0.000   0.009   70.79   21.16    0.00    4.44    0.00   16.71   0.136   0.001   0.135 
 2020 142    33   6.60  17.10  13.20   1.255   1.486   0.002   1.484   0.170   0.002   0.166   0.000   0.002   72.28   21.33    0.01    4.61    0.00   16.71   0.135   0.002   0.133 
 2020 143    34  14.50  20.80  13.00   2.562   3.055   0.007   3.048   1.542   0.007   0.000   0.000   1.535   75.33   22.87    0.01    4.61    0.00   18.25   0.602   0.003   0.599 
 2020 144    35  21.80  23.90   9.20   3.412   4.103   0.012   4.091   0.538   0.012   0.000   0.000   0.526   79.43   23.41    0.03    4.61    0.00   18.78   0.158   0.004   0.154 
 2020 145    36  16.60  21.60  10.30   2.754   3.305   0.013   3.293   2.646   0.013   0.000   0.000   2.634   82.74   26.06    0.04    4.61    0.00   21.41   0.961   0.005   0.956 
 2020 146    37  17.30  18.00   5.40   2.572   3.094   0.014   3.080   0.521   0.014   0.000   0.000   0.507   85.83   26.58    0.05    4.61    0.00   21.92   0.202   0.006   0.197 
 2020 147    38  28.10  23.90   3.60   3.786   4.578   0.023   4.555   2.871   0.023   0.000   0.000   2.848   90.41   29.45    0.08    4.61    0.00   24.76   0.758   0.006   0.752 
 2020 148    39  29.20  26.90   6.20   4.132   4.998   0.027   4.971   0.587   0.027   0.012   0.000   0.548   95.41   30.03    0.10    4.62    0.00   25.31   0.142   0.007   0.136 
 2020 149    40  24.90  24.90   9.20   3.778   4.562   0.030   4.532   0.541   0.030   0.405   0.000   0.105   99.97   30.58    0.13    5.03    0.00   25.42   0.143   0.008   0.135 
 2020 150    41  27.50  25.70   9.80   4.138   4.998   0.039   4.959   0.598   0.039   0.538   0.000   0.020  104.97   31.17    0.17    5.56    0.00   25.44   0.144   0.009   0.135 
 2020 151    42  26.80  24.70  14.60   4.332   5.198   0.063   5.135   0.642   0.063   0.575   0.000   0.004  110.17   31.82    0.24    6.14    0.00   25.44   0.148   0.015   0.134 
 2020 152    43  25.40  31.10  12.10   4.176   5.064   0.087   4.976   0.702   0.087   0.000   0.000   0.615  115.23   32.52    0.32    6.14    0.00   26.06   0.168   0.021   0.147 
 2020 153    44  25.40  34.50  18.80   4.394   5.339   0.131   5.209   0.717   0.131   0.469   0.000   0.118  120.57   33.24    0.45    6.61    0.00   26.17   0.163   0.030   0.134 
 2020 154    45  24.10  35.00  14.00   4.071   4.953   0.174   4.780   0.712   0.174   0.516   0.000   0.023  125.52   33.95    0.63    7.12    0.00   26.20   0.175   0.043   0.132 
 2020 155    46  25.40  30.80  12.20   4.168   5.071   0.232   4.839   0.777   0.232   0.541   0.000   0.004  130.59   34.72    0.86    7.66    0.00   26.20   0.186   0.056   0.131 
 2020 156    47  26.60  35.00  11.10   4.231   5.158   0.284   4.874   0.834   0.284   0.548   0.000   0.001  135.75   35.56    1.14    8.21    0.00   26.20   0.197   0.067   0.130 
 2020 157    48  29.10  32.70  14.30   4.764   5.814   0.401   5.413   1.011   0.401   0.610   0.000   0.000  141.57   36.57    1.54    8.82    0.00   26.20   0.212   0.084   0.128 
 2020 158    49  21.60  34.00  22.10   4.125   5.002   0.423   4.578   0.939   0.423   0.516   0.000   0.000  146.57   37.51    1.97    9.34    0.00   26.20   0.228   0.103   0.125 
 2020 159    50  27.40  34.10  24.00   5.082   6.171   0.645   5.526   1.643   0.645   0.000   0.000   0.998  152.74   39.15    2.61    9.34    0.00   27.20   0.323   0.127   0.196 
 2020 160    51  25.30  31.10  18.10   4.537   5.473   0.704   4.770   1.229   0.704   0.333   0.000   0.192  158.21   40.38    3.32    9.67    0.00   27.39   0.271   0.155   0.116 
 2020 161    52   4.10  18.00  11.40   0.786   0.921   0.141   0.780   0.833   0.141   0.000   0.000   0.692  159.13   41.21    3.46    9.67    0.00   28.08   1.059   0.179   0.880 
 2020 162    53  29.40  24.70   8.30   4.263   5.226   0.800   4.426   3.223   0.800   0.000   0.000   2.423  164.36   44.44    4.26    9.67    0.00   30.51   0.756   0.188   0.568 
 2020 163    54  29.20  29.80   6.00   4.213   5.170   0.851   4.319   1.338   0.851   0.021   0.000   0.466  169.53   45.77    5.11    9.69    0.00   30.97   0.318   0.202   0.116 
 2020 164    55  29.30  32.60  10.30   4.502   5.530   1.000   4.530   1.510   1.000   0.421   0.000   0.090  175.06   47.28    6.11   10.11    0.00   31.06   0.335   0.222   0.113 
 2020 165    56  28.60  31.60  12.90   4.594   5.647   1.141   4.506   1.649   1.141   0.491   0.000   0.017  180.71   48.93    7.25   10.60    0.00   31.08   0.359   0.248   0.111 
 2020 166    57  22.60  35.90  21.20   4.128   5.079   1.137   3.942   1.581   1.137   0.441   0.000   0.003  185.79   50.51    8.39   11.04    0.00   31.08   0.383   0.275   0.108 
 2020 167    58  26.60  35.30  20.60   4.579   5.639   1.401   4.238   1.878   1.401   0.477   0.000   0.001  191.42   52.39    9.79   11.52    0.00   31.08   0.410   0.306   0.104 
 2020 168    59  28.10  34.70  19.30   4.824   5.946   1.626   4.320   2.113   1.626   0.487   0.000   0.000  197.37   54.51   11.41   12.01    0.00   31.08   0.438   0.337   0.101 
 2020 169    60  27.00  35.90  20.10   4.800   5.921   1.764   4.158   2.232   1.764   0.469   0.000   0.000  203.29   56.74   13.18   12.48    0.00   31.08   0.465   0.367   0.098 
 2020 170    61  19.10  24.90  15.40   3.320   4.022   1.320   2.702   1.625   1.320   0.304   0.000   0.000  207.31   58.36   14.50   12.78    0.00   31.08   0.489   0.398   0.092 
 2020 171    62  15.10  23.20  13.60   2.714   3.241   1.110   2.131   1.350   1.110   0.240   0.000   0.000  210.55   59.71   15.61   13.02    0.00   31.08   0.497   0.409   0.088 
 2020 172    63  24.10  29.10  11.70   3.940   4.846   1.633   3.212   3.398   1.633   0.000   0.000   1.765  215.40   63.11   17.24   13.02    0.00   32.85   0.862   0.414   0.448 
 2020 173    64  20.70  30.70  15.90   3.703   4.527   1.561   2.966   1.901   1.561   0.000   0.000   0.339  219.93   65.01   18.80   13.02    0.00   33.19   0.513   0.422   0.092 
 2020 174    65  25.10  28.20  11.70   4.044   4.968   1.756   3.212   2.118   1.756   0.297   0.000   0.065  224.90   67.13   20.56   13.32    0.00   33.25   0.524   0.434   0.090 
 2020 175    66  25.60  28.40   8.80   3.963   4.898   1.747   3.151   3.525   1.747   0.000   0.000   1.778  229.79   70.65   22.30   13.32    0.00   35.03   0.889   0.441   0.449 
 2020 176    67  27.90  32.10  14.80   4.648   5.730   2.062   3.667   2.476   2.062   0.071   0.000   0.342  235.52   73.13   24.37   13.39    0.00   35.37   0.533   0.444   0.089 
 2020 177    68  22.50  34.80  18.10   4.089   5.044   1.843   3.201   2.204   1.843   0.295   0.000   0.066  240.57   75.33   26.21   13.68    0.00   35.44   0.539   0.451   0.088 
 2020 178    69  27.30  30.10  18.60   4.817   5.805   2.215   3.590   3.609   2.215   0.000   0.000   1.394  246.37   78.94   28.43   13.68    0.00   36.83   0.749   0.460   0.289 
 2020 179    70  26.70  33.00  17.10   4.654   5.712   2.165   3.547   2.663   2.165   0.000   0.000   0.498  252.08   81.61   30.59   13.68    0.00   37.33   0.572   0.465   0.107 
 2020 180    71  27.30  35.30  17.60   4.778   5.904   2.401   3.503   2.796   2.401   0.299   0.000   0.096  257.99   84.40   32.99   13.98    0.00   37.43   0.585   0.503   0.083 
 2020 181    72  26.30  35.80  22.00   4.981   6.070   2.561   3.508   2.957   2.561   0.377   0.000   0.018  264.06   87.36   35.55   14.36    0.00   37.45   0.594   0.514   0.079 
 2020 182    73  25.40  28.30   9.70   3.975   4.923   2.052   2.871   2.375   2.052   0.320   0.000   0.004  268.98   89.73   37.60   14.68    0.00   37.45   0.598   0.516   0.081 
 2020 183    74  29.10  31.80   7.80   4.297   5.320   2.184   3.137   2.537   2.184   0.353   0.000   0.001  274.30   92.27   39.79   15.03    0.00   37.45   0.590   0.508   0.082 
 2020 184    75  20.20  33.30  16.00   3.703   4.550   1.849   2.701   2.153   1.849   0.304   0.000   0.000  278.85   94.42   41.64   15.34    0.00   37.45   0.581   0.499   0.082 
 2020 185    76  28.10  32.90  17.30   4.768   5.883   2.346   3.536   2.745   2.346   0.398   0.000   0.000  284.73   97.17   43.98   15.74    0.00   37.45   0.576   0.492   0.084 
 2020 186    77  28.00  32.60  16.20   4.796   5.884   2.325   3.559   2.726   2.325   0.401   0.000   0.000  290.62   99.90   46.31   16.14    0.00   37.45   0.568   0.485   0.084 
 2020 187    78  23.60  32.70  17.90   4.240   5.185   2.022   3.163   2.379   2.022   0.356   0.000   0.000  295.80  102.27   48.33   16.49    0.00   37.45   0.561   0.477   0.084 
 2020 188    79  27.10  33.80  19.40   4.839   5.920   2.270   3.650   2.681   2.270   0.411   0.000   0.000  301.72  104.96   50.60   16.90    0.00   37.45   0.554   0.469   0.085 
 2020 189    80  27.50  35.30  20.60   5.005   6.139   2.311   3.828   2.742   2.311   0.431   0.000   0.000  307.86  107.70   52.91   17.34    0.00   37.45   0.548   0.462   0.086 
 2020 190    81  25.90  35.50  19.50   4.628   5.718   2.104   3.614   2.511   2.104   0.407   0.000   0.000  313.58  110.21   55.02   17.74    0.00   37.45   0.543   0.455   0.088 
 2020 191    82  27.00  30.50  14.20   4.444   5.460   1.989   3.472   4.521   1.989   0.000   0.000   2.533  319.04  114.73   57.00   17.74    0.00   39.98   1.017   0.447   0.570 
 2020 192    83  25.60  32.20  17.20   4.530   5.520   1.988   3.532   2.769   1.988   0.000   0.000   0.781  324.56  117.50   58.99   17.74    0.00   40.76   0.611   0.439   0.172 
 2020 193    84  26.10  29.10  16.50   4.424   5.366   1.908   3.458   2.298   1.908   0.239   0.000   0.150  329.93  119.80   60.90   17.98    0.00   40.91   0.519   0.431   0.088 
 2020 194    85  24.50  32.80  13.30   4.091   5.065   1.732   3.333   2.108   1.732   0.347   0.000   0.029  334.99  121.90   62.63   18.33    0.00   40.94   0.515   0.423   0.092 
 2020 195    86  23.10  35.00  18.60   4.206   5.171   1.750   3.421   2.136   1.750   0.380   0.000   0.006  340.16  124.04   64.38   18.71    0.00   40.95   0.508   0.416   0.092 
 2020 196    87  16.00  24.20  16.30   2.947   3.452   1.210   2.242   3.199   1.210   0.000   0.000   1.989  343.61  127.24   65.59   18.71    0.00   42.94   1.086   0.411   0.675 
 2020 197    88  23.30  26.00  19.70   4.164   4.881   1.679   3.202   2.899   1.679   0.000   0.000   1.221  348.49  130.14   67.27   18.71    0.00   44.16   0.696   0.403   0.293 
 2020 198    89  25.30  32.20  18.40   4.573   5.524   1.790   3.734   2.211   1.790   0.186   0.000   0.235  354.02  132.35   69.06   18.89    0.00   44.39   0.484   0.392   0.092 
 2020 199    90  27.60  35.10  21.40   5.062   6.160   1.924   4.236   2.402   1.924   0.432   0.000   0.045  360.18  134.75   70.99   19.33    0.00   44.44   0.474   0.380   0.094 
 2020 200    91  17.00  30.80  18.10   3.248   3.919   1.199   2.720   1.505   1.199   0.298   0.000   0.009  364.10  136.26   72.19   19.62    0.00   44.45   0.463   0.369   0.094 
 2020 201    92  23.80  30.80  16.10   4.111   5.007   1.472   3.535   1.870   1.472   0.397   0.000   0.002  369.10  138.13   73.66   20.02    0.00   44.45   0.455   0.358   0.097 
 2020 202    93  21.00  29.00  18.40   3.825   4.561   1.329   3.233   1.693   1.329   0.364   0.000   0.000  373.67  139.82   74.99   20.39    0.00   44.45   0.443   0.347   0.095 
 2020 203    94  26.60  28.30  13.20   4.269   5.200   1.439   3.761   1.863   1.439   0.194   0.000   0.230  378.87  141.68   76.42   20.58    0.00   44.68   0.436   0.337   0.099 
 2020 204    95  26.70  30.90  19.30   4.790   5.727   1.566   4.161   2.035   1.566   0.425   0.000   0.044  384.59  143.72   77.99   21.00    0.00   44.72   0.425   0.327   0.098 
 2020 205    96  19.30  32.40  21.20   3.758   4.510   1.192   3.318   1.566   1.192   0.365   0.000   0.009  389.10  145.28   79.18   21.37    0.00   44.73   0.417   0.317   0.100 
 2020 206    97  23.00  34.90  20.80   4.336   5.266   1.334   3.933   1.777   1.334   0.441   0.000   0.002  394.37  147.06   80.52   21.81    0.00   44.73   0.410   0.308   0.102 
 2020 207    98  27.20  33.90  20.00   4.883   5.919   1.457   4.462   4.284   1.457   0.000   0.000   2.827  400.29  151.34   81.97   21.81    0.00   47.56   0.877   0.298   0.579 
 2020 208    99   7.90  24.50  19.80   1.728   1.934   0.500   1.434   1.045   0.500   0.000   0.000   0.545  402.22  152.39   82.47   21.81    0.00   48.11   0.605   0.289   0.315 
 2020 209   100  22.60  27.60  18.80   4.044   4.757   1.135   3.622   1.543   1.135   0.303   0.000   0.105  406.98  153.93   83.61   22.11    0.00   48.21   0.382   0.281   0.101 
 2020 210   101  26.30  29.90  19.10   4.615   5.516   1.255   4.261   1.735   1.255   0.460   0.000   0.020  412.49  155.67   84.86   22.57    0.00   48.23   0.376   0.272   0.104 
 2020 211   102  25.40  31.00  17.40   4.366   5.285   1.152   4.133   1.617   1.152   0.462   0.000   0.004  417.78  157.29   86.02   23.04    0.00   48.23   0.370   0.264   0.107 
 2020 212   103  11.60  24.00  15.00   2.248   2.629   0.575   2.054   2.397   0.575   0.000   0.000   1.823  420.41  159.68   86.59   23.04    0.00   50.06   1.067   0.256   0.811 
 2020 213   104  24.90  27.90  11.70   3.898   4.754   0.967   3.787   2.325   0.967   0.000   0.000   1.358  425.16  162.01   87.56   23.04    0.00   51.42   0.596   0.248   0.348 
 2020 214   105  25.50  27.40  17.30   4.287   5.105   1.030   4.075   1.490   1.030   0.198   0.000   0.261  430.27  163.50   88.59   23.23    0.00   51.68   0.348   0.240   0.107 
 2020 215   106  26.80  24.20  11.60   4.002   4.833   0.933   3.900   2.902   0.933   0.000   0.000   1.969  435.10  166.40   89.52   23.23    0.00   53.65   0.725   0.233   0.492 
 2020 216   107  21.30  24.40  11.30   3.333   4.021   0.753   3.268   1.132   0.753   0.000   0.000   0.379  439.12  167.53   90.27   23.23    0.00   54.02   0.340   0.226   0.114 
 2020 217   108  17.00  23.10  15.40   2.950   3.452   0.646   2.806   0.962   0.646   0.243   0.000   0.073  442.57  168.49   90.92   23.48    0.00   54.10   0.326   0.219   0.107 
 2020 218   109  25.70  29.60  14.30   4.151   5.045   0.881   4.163   1.350   0.881   0.455   0.000   0.014  447.62  169.84   91.80   23.93    0.00   54.11   0.325   0.212   0.113 
 2020 219   110  23.40  30.10  16.60   3.985   4.806   0.820   3.986   1.269   0.820   0.446   0.000   0.003  452.42  171.11   92.62   24.38    0.00   54.11   0.318   0.206   0.113 
 2020 220   111  23.90  33.90  20.00   4.257   5.177   0.849   4.328   1.337   0.849   0.487   0.000   0.001  457.60  172.45   93.47   24.87    0.00   54.11   0.314   0.199   0.115 
 2020 221   112  20.10  32.60  16.00   3.510   4.285   0.679   3.606   1.085   0.679   0.406   0.000   0.000  461.89  173.53   94.15   25.27    0.00   54.11   0.309   0.193   0.116 
 2020 222   113  24.70  34.50  14.00   3.967   4.912   0.744   4.168   2.509   0.744   0.000   0.000   1.765  466.80  176.04   94.89   25.27    0.00   55.88   0.632   0.187   0.445 
 2020 223   114  24.80  27.10  16.90   4.058   4.844   0.738   4.107   1.200   0.738   0.123   0.000   0.339  471.64  177.24   95.63   25.40    0.00   56.22   0.296   0.182   0.114 
 2020 224   115  22.40  32.00  15.10   3.712   4.548   0.654   3.894   1.093   0.654   0.374   0.000   0.065  476.19  178.34   96.28   25.77    0.00   56.28   0.294   0.176   0.118 
 2020 225   116  23.20  31.90  17.60   3.874   4.730   0.662   4.068   1.120   0.662   0.446   0.000   0.013  480.92  179.46   96.95   26.21    0.00   56.30   0.289   0.171   0.118 
 2020 226   117  25.00  33.20  19.70   4.362   5.276   0.723   4.553   1.236   0.723   0.511   0.000   0.002  486.20  180.69   97.67   26.73    0.00   56.30   0.283   0.166   0.118 
 2020 227   118  24.40  28.10  14.90   3.876   4.685   0.623   4.062   1.081   0.623   0.457   0.000   0.000  490.88  181.77   98.29   27.18    0.00   56.30   0.279   0.161   0.118 
 2020 228   119  20.20  28.30  10.80   3.106   3.827   0.485   3.342   0.861   0.485   0.377   0.000   0.000  494.71  182.64   98.78   27.56    0.00   56.30   0.277   0.156   0.121 
 2020 229   120  19.00  33.60  15.60   3.209   3.961   0.486   3.475   0.878   0.486   0.392   0.000   0.000  498.67  183.51   99.26   27.95    0.00   56.30   0.273   0.151   0.122 
 2020 230   121  24.40  31.50  10.60   3.572   4.423   0.525   3.898   0.964   0.525   0.439   0.000   0.000  503.09  184.48   99.79   28.39    0.00   56.30   0.270   0.147   0.123 
 2020 231   122  22.80  33.50  17.60   3.677   4.546   0.525   4.021   0.966   0.525   0.441   0.000   0.000  507.64  185.44  100.31   28.83    0.00   56.30   0.263   0.143   0.120 
 2020 232   123  17.50  30.30  18.60   3.058   3.711   0.424   3.287   0.794   0.424   0.370   0.000   0.000  511.35  186.24  100.74   29.20    0.00   56.30   0.260   0.139   0.121 
 2020 233   124  19.70  33.20  17.50   3.319   4.076   0.447   3.630   0.856   0.447   0.409   0.000   0.000  515.43  187.09  101.18   29.61    0.00   56.30   0.258   0.135   0.123 
 2020 234   125  21.30  33.20  17.40   3.496   4.300   0.457   3.843   0.890   0.457   0.433   0.000   0.000  519.73  187.98  101.64   30.04    0.00   56.30   0.255   0.131   0.124 
 2020 235   126  20.80  34.80  15.60   3.369   4.171   0.428   3.743   0.849   0.428   0.422   0.000   0.000  523.90  188.83  102.07   30.46    0.00   56.30   0.252   0.127   0.125 
 2020 236   127  21.50  35.50  15.90   3.444   4.264   0.425   3.839   0.858   0.425   0.433   0.000   0.000  528.16  189.69  102.49   30.90    0.00   56.30   0.249   0.123   0.126 
 2020 237   128  20.60  35.90  20.00   3.425   4.242   0.411   3.830   0.843   0.411   0.432   0.000   0.000  532.40  190.53  102.90   31.33    0.00   56.30   0.246   0.120   0.126 
 2020 238   129  21.30  36.20  18.90   3.467   4.293   0.405   3.888   0.843   0.405   0.438   0.000   0.000  536.69  191.37  103.31   31.77    0.00   56.30   0.243   0.117   0.126 
 2020 239   130  21.50  35.40  19.60   3.436   4.255   0.390   3.864   0.826   0.390   0.435   0.000   0.000  540.95  192.20  103.70   32.20    0.00   56.30   0.240   0.114   0.127 
 2020 240   131  20.40  35.60  17.00   3.237   4.008   0.358   3.650   0.769   0.358   0.411   0.000   0.000  544.96  192.97  104.06   32.61    0.00   56.30   0.238   0.111   0.127 
 2020 241   132  19.00  29.30  16.00   3.045   3.705   0.328   3.377   0.709   0.328   0.381   0.000   0.000  548.66  193.68  104.38   32.99    0.00   56.30   0.233   0.108   0.125 
 2020 242   133  21.60  27.50   8.90   2.948   3.649   0.310   3.339   0.686   0.310   0.376   0.000   0.000  552.31  194.36  104.69   33.37    0.00   56.30   0.233   0.105   0.128 
 2020 243   134  20.80  33.70  17.70   3.344   4.117   0.342   3.775   0.768   0.342   0.425   0.000   0.000  556.43  195.13  105.04   33.80    0.00   56.30   0.230   0.102   0.127 
 2020 244   135  22.40  22.90  12.10   2.899   3.574   0.290   3.284   0.660   0.290   0.370   0.000   0.000  560.00  195.79  105.33   34.17    0.00   56.30   0.228   0.100   0.128 
 2020 245   136  21.70  28.50  10.10   2.895   3.584   0.282   3.302   0.654   0.282   0.372   0.000   0.000  563.59  196.45  105.61   34.54    0.00   56.30   0.226   0.097   0.129 
 2020 246   137  22.70  31.20   6.30   2.835   3.511   0.270   3.241   0.635   0.270   0.365   0.000   0.000  567.10  197.08  105.88   34.90    0.00   56.30   0.224   0.095   0.129 
 2020 247   138  21.90  26.30  14.90   3.000   3.691   0.278   3.412   0.663   0.278   0.385   0.000   0.000  570.79  197.74  106.16   35.29    0.00   56.30   0.221   0.093   0.128 
 2020 248   139  21.80  31.90  14.00   3.020   3.740   0.274   3.466   0.664   0.274   0.391   0.000   0.000  574.53  198.41  106.43   35.68    0.00   56.30   0.220   0.091   0.129 
 2020 249   140  21.10  37.50  10.40   2.845   3.523   0.252   3.271   0.620   0.252   0.369   0.000   0.000  578.05  199.03  106.68   36.05    0.00   56.30   0.218   0.088   0.130 
 2020 250   141  20.10  33.80  14.40   2.782   3.445   0.240   3.204   0.601   0.240   0.361   0.000   0.000  581.50  199.63  106.92   36.41    0.00   56.30   0.216   0.086   0.130 
 2020 251   142  17.90  23.20   7.70   2.359   2.895   0.199   2.696   0.503   0.199   0.304   0.000   0.000  584.39  200.13  107.12   36.71    0.00   56.30   0.213   0.084   0.129 
 2020 252   143   2.40   7.40   3.30   0.326   0.369   0.027   0.342   0.066   0.027   0.039   0.000   0.000  584.76  200.20  107.15   36.75    0.00   56.30   0.201   0.082   0.118 
 2020 253   144   7.10   7.70   2.10   1.041   1.201   0.080   1.121   1.075   0.080   0.000   0.000   0.995  585.96  201.27  107.23   36.75    0.00   57.29   1.032   0.077   0.956 
 2020 254   145  17.40  15.50   2.10   1.946   2.364   0.127   2.237   2.112   0.127   0.000   0.000   1.985  588.32  203.38  107.36   36.75    0.00   59.28   1.085   0.065   1.020 
 2020 255   146   9.10  19.00   9.30   1.500   1.787   0.084   1.703   0.504   0.084   0.000   0.000   0.421  590.11  203.89  107.44   36.75    0.00   59.70   0.336   0.056   0.280 
 2020 256   147  19.60  23.70   6.50   2.374   2.924   0.129   2.795   1.975   0.129   0.000   0.000   1.846  593.04  205.86  107.57   36.75    0.00   61.55   0.832   0.054   0.778 
 2020 257   148  21.40  30.30   7.00   2.506   3.103   0.134   2.969   0.489   0.134   0.000   0.000   0.355  596.14  206.35  107.70   36.75    0.00   61.90   0.195   0.053   0.142 
 2020 258   149  16.60  28.70   6.60   2.134   2.643   0.111   2.532   0.397   0.111   0.217   0.000   0.068  598.78  206.75  107.81   36.97    0.00   61.97   0.186   0.052   0.134 
 2020 259   150  16.90  30.30  11.50   2.312   2.863   0.118   2.745   0.428   0.118   0.296   0.000   0.013  601.64  207.18  107.93   37.26    0.00   61.98   0.185   0.051   0.134 
 2020 260   151  16.20  21.80   8.30   2.070   2.516   0.104   2.412   0.375   0.104   0.269   0.000   0.003  604.16  207.55  108.03   37.53    0.00   61.98   0.181   0.050   0.131 
 2020 261   152  16.40  25.70   3.80   1.965   2.433   0.096   2.337   0.360   0.096   0.263   0.000   0.000  606.59  207.91  108.13   37.80    0.00   61.98   0.183   0.049   0.134 
 2020 262   153  16.60  26.90  10.00   2.196   2.697   0.103   2.594   0.395   0.103   0.292   0.000   0.000  609.29  208.31  108.23   38.09    0.00   61.98   0.180   0.047   0.133 
 2020 263   154  15.30  28.80  11.80   2.132   2.636   0.098   2.539   0.384   0.098   0.286   0.000   0.000  611.93  208.69  108.33   38.37    0.00   61.98   0.180   0.046   0.134 
 2020 264   155  15.90  28.20  15.00   2.200   2.697   0.099   2.598   0.392   0.099   0.293   0.000   0.000  614.62  209.08  108.43   38.67    0.00   61.98   0.178   0.045   0.133 
 2020 265   156  15.10  28.90  14.10   2.115   2.597   0.095   2.502   0.377   0.095   0.282   0.000   0.000  617.22  209.46  108.53   38.95    0.00   61.98   0.178   0.045   0.133 
 2020 266   157  17.40  30.40  10.80   2.125   2.632   0.096   2.536   0.863   0.096   0.000   0.000   0.767  619.85  210.32  108.62   38.95    0.00   62.75   0.406   0.045   0.361 
 2020 267   158  17.20  33.00   8.70   1.992   2.467   0.090   2.377   0.357   0.090   0.120   0.000   0.148  622.32  210.68  108.71   39.07    0.00   62.90   0.179   0.045   0.134 
 2020 268   159  16.60  31.40   6.70   1.878   2.326   0.084   2.241   0.337   0.084   0.224   0.000   0.028  624.64  211.02  108.79   39.29    0.00   62.93   0.179   0.045   0.134 
