*MODEL INPUT FILE            A     1     1     1     1     0
*FILES              
MODEL          MZCER048
FILEX          UNLI2309.MZX                                                                                 
FILEA          UNLI2309.MZA                                                                                 
FILET          UNLI2309.MZT                                                                                 
SPECIES        MZCER048.SPE C:\DSSAT48\GENOTYPE\                                                            
ECOTYPE        MZCER048.ECO C:\DSSAT48\GENOTYPE\                                                            
CULTIVAR       MZCER048.CUL C:\DSSAT48\GENOTYPE\                                                            
PESTS          MZCER048.PST C:\DSSAT48\PEST\                                                                
SOILS          UN.SOL       C:\DSSAT48\SOIL\                                                                
WEATHERW       NEME2001.WTH C:\DSSAT48\Weather\                                                             
OUTPUT         UNLI2309
*SIMULATION CONTROL 
                   1     1     S 2020110  2150 Full_irrigation          
                   Y     Y     N     N     N     N     N     N     W
                   M     M     E     S     S     R     R     1     G     R     2     D     0
                   R     R     R     R     M
                   Y     Y     A     1     Y     Y     Y     Y     Y     Y     A     Y     Y
!AUTOMATIC MANAGEM  
                   -99     -99   40.  100.   30.   40.   10.
                 30.    0.    0. GS000 IR004  40.0 1.000
                100.    1.   20. FE001 GS000
                  0. 96137  100.
                     0     -99  100.    0.
*EXP.DETAILS        
  1UNLI2309 MZ PIO1366                                                     
*TREATMENTS         
  1 0 0 0 farm_23                  
*CULTIVARS          
   MZ IB1071 PIO 1366AML     
*FIELDS             
   UCCO0001 NEME2001   0.0    0. DR000    0. 100.0 00000 SIL    200. UNNP230018-99.00 -99.0
      0.0000000000    0.0000000000     0.000               1.0  100.   1.0   0.0   -99   -99
*INITIAL CONDITIONS 
   MZ    2020110     0     0  1.00  1.00 -99.0  5000  0.00  0.00  100.    0.
      5. 0.289 0.100 0.600
     15. 0.289 0.100 0.600
     23. 0.289 0.100 0.600
     31. 0.289 0.100 0.600
     46. 0.255 0.100 0.600
     61. 0.255 0.100 0.600
     91. 0.220 0.100 0.600
    106. 0.210 0.100 0.600
    122. 0.210 0.100 0.600
    152. 0.210 0.100 0.600
    167. 0.210 0.100 0.600
    183. 0.210 0.100 0.600
*PLANTING DETAILS   
   2020122 2020135   8.1   8.1     S     R   76.    0.   5.0  -99.  -99. -99.0 -99.0 -99.0
*IRRIGATION         
   1.000   30.   50.  100. GS000 IR001  10.0
   2020122 IR001   0.0
   2020269 IR001  25.4
   2020272 IR001  25.4
   2020276 IR001  25.4
   2020279 IR001  25.4
*FERTILIZERS        
   2020122 FE001 AP001   10.    0.  -99.  -99.  -99.  -99.   -99
*RESIDUES           
   2020110 RE203  5000  0.00  0.00  0.00    0.  -99.   -99
*CHEMICALS          
*TILLAGE            
*ENVIRONMENT        
*HARVEST            
*SOIL               
 UNNP230018  TAPS        SIL    200.   Cozad Silt Loam                                 
 NP          US           41.400 100.760 Silt Loam                                         
 BN     0.13   6.0  0.60   61.  1.00  0.90 IB001 IB001 IB001 -99  
    5.       0.158 0.333 0.512 1.000 0.680  1.20 1.160  20.0  52.0 -99.0 0.200  6.30-99.00 17.00-99.00
   15.       0.158 0.333 0.512 1.000 0.680  1.20 1.160  20.0  52.0 -99.0 0.150  6.30-99.00 17.00-99.00
   23.       0.158 0.333 0.512 1.000 0.680  1.20 1.160  20.0  52.0 -99.0 0.150  6.30-99.00 17.00-99.00
   31.       0.158 0.333 0.512 1.000 0.680  1.20 1.160  20.0  52.0 -99.0 0.150  6.30-99.00 17.00-99.00
   46.       0.136 0.294 0.482 1.000  1.32  1.29 0.710  18.1  49.0 -99.0 0.080  6.30-99.00 15.00-99.00
   61.       0.136 0.294 0.482 1.000  1.32  1.29 0.710  18.1  49.0 -99.0 0.080  6.30-99.00 15.00-99.00
   91.       0.110 0.257 0.477 1.000  1.32  1.31 0.520  14.0  47.0 -99.0 0.070  7.00-99.00 12.00-99.00
  106.       0.104 0.245 0.467 0.119  1.32  1.34 0.290  14.0  47.0 -99.0 0.050  7.00-99.00 12.00-99.00
  122.       0.104 0.245 0.467 0.119  1.32  1.34 0.290  14.0  47.0 -99.0 0.050  7.00-99.00 12.00-99.00
  152.       0.104 0.245 0.467 0.065  1.32  1.34 0.290  14.0  47.0 -99.0 0.040  7.00-99.00 12.00-99.00
  167.       0.104 0.245 0.467 0.035  1.32  1.34 0.290  14.0  47.0 -99.0 0.040  7.00-99.00 12.00-99.00
  183.       0.104 0.245 0.467 0.035  1.32  1.34 0.290  14.0  47.0 -99.0 0.040  7.00-99.00 12.00-99.00
                    
    5.-99.00 -99.0 -99.0 -99.0 -99.0 -99.0 -99.0 -99.0 -99.0 -99.0-99.00 -99.0 -99.0 -99.0 -99.0 -99.0  -99.  -99.
   15.-99.00 -99.0 -99.0 -99.0 -99.0 -99.0 -99.0 -99.0 -99.0 -99.0-99.00 -99.0 -99.0 -99.0 -99.0 -99.0  -99.  -99.
   23.-99.00 -99.0 -99.0 -99.0 -99.0 -99.0 -99.0 -99.0 -99.0 -99.0-99.00 -99.0 -99.0 -99.0 -99.0 -99.0  -99.  -99.
   31.-99.00 -99.0 -99.0 -99.0 -99.0 -99.0 -99.0 -99.0 -99.0 -99.0-99.00 -99.0 -99.0 -99.0 -99.0 -99.0  -99.  -99.
   46.-99.00 -99.0 -99.0 -99.0 -99.0 -99.0 -99.0 -99.0 -99.0 -99.0-99.00 -99.0 -99.0 -99.0 -99.0 -99.0  -99.  -99.
   61.-99.00 -99.0 -99.0 -99.0 -99.0 -99.0 -99.0 -99.0 -99.0 -99.0-99.00 -99.0 -99.0 -99.0 -99.0 -99.0  -99.  -99.
   91.-99.00 -99.0 -99.0 -99.0 -99.0 -99.0 -99.0 -99.0 -99.0 -99.0-99.00 -99.0 -99.0 -99.0 -99.0 -99.0  -99.  -99.
  106.-99.00 -99.0 -99.0 -99.0 -99.0 -99.0 -99.0 -99.0 -99.0 -99.0-99.00 -99.0 -99.0 -99.0 -99.0 -99.0  -99.  -99.
  122.-99.00 -99.0 -99.0 -99.0 -99.0 -99.0 -99.0 -99.0 -99.0 -99.0-99.00 -99.0 -99.0 -99.0 -99.0 -99.0  -99.  -99.
  152.-99.00 -99.0 -99.0 -99.0 -99.0 -99.0 -99.0 -99.0 -99.0 -99.0-99.00 -99.0 -99.0 -99.0 -99.0 -99.0  -99.  -99.
  167.-99.00 -99.0 -99.0 -99.0 -99.0 -99.0 -99.0 -99.0 -99.0 -99.0-99.00 -99.0 -99.0 -99.0 -99.0 -99.0  -99.  -99.
  183.-99.00 -99.0 -99.0 -99.0 -99.0 -99.0 -99.0 -99.0 -99.0 -99.0-99.00 -99.0 -99.0 -99.0 -99.0 -99.0  -99.  -99.
                    
    5.-99.00-99.00-99.00-99.00
   15.-99.00-99.00-99.00-99.00
   23.-99.00-99.00-99.00-99.00
   31.-99.00-99.00-99.00-99.00
   46.-99.00-99.00-99.00-99.00
   61.-99.00-99.00-99.00-99.00
   91.-99.00-99.00-99.00-99.00
  106.-99.00-99.00-99.00-99.00
  122.-99.00-99.00-99.00-99.00
  152.-99.00-99.00-99.00-99.00
  167.-99.00-99.00-99.00-99.00
  183.-99.00-99.00-99.00-99.00
*CULTIVAR           
IB1071 PIO 1366AML      IB0002  187.0 0.456 973.5 330.2 16.39 48.00
