*Soil Organic Matter daily output file

*DSSAT Cropping System Model Ver. 4.8.2.000 -release  JUN 02, 2025 19:53:44

*RUN   1        : farm_23                   MZCER048 UNLI2309    1
 MODEL          : MZCER048 - Maize
 EXPERIMENT     : UNLI2309 MZ PIO1366
 DATA PATH      :
 TREATMENT  1   : farm_23                   MZCER048
  
@YEAR DOY   DAS    OMAC    SCDD    SOCD    SC0D    SCTD   SOMCT    LCTD    ONAC    SNDD    SOND    SN0D    SNTD   SOMNT    LNTD
 2020 109     0       0   12180  128816    2000  126816  126816     0.0    0.00  1218.0 12681.6    0.00 12681.6 12681.6    0.00
 2020 110     1    5000   12180  130816    4000  126816  126816     0.0   55.00  1218.0 12736.6   55.00 12681.6 12681.6    0.00
 2020 111     2    5000   12180  130815    4000  126815  126815     0.0   55.00  1218.0 12736.5   55.00 12681.5 12681.5    0.00
 2020 112     3    5000   12180  130814    4000  126814  126814     0.0   55.00  1218.0 12736.4   55.00 12681.4 12681.4    0.00
 2020 113     4    5000   12180  130814    4000  126814  126814     0.0   55.00  1218.0 12736.4   55.00 12681.4 12681.4    0.00
 2020 114     5    5000   12179  130813    4000  126813  126813     0.0   55.00  1217.9 12736.3   55.00 12681.3 12681.3    0.00
 2020 115     6    5000   12179  130811    4000  126811  126811     0.0   55.00  1217.9 12736.1   55.00 12681.1 12681.1    0.00
 2020 116     7    5000   12179  130810    4000  126810  126810     0.0   55.00  1217.9 12736.0   55.00 12681.0 12681.0    0.00
 2020 117     8    5000   12179  130808    4000  126808  126808     0.0   55.00  1217.9 12735.8   55.00 12680.8 12680.8    0.00
 2020 118     9    5000   12179  130807    4000  126807  126807     0.0   55.00  1217.9 12735.7   55.00 12680.7 12680.7    0.00
 2020 119    10    5000   12178  130805    4000  126805  126805     0.0   55.00  1217.8 12735.5   55.00 12680.5 12680.5    0.00
 2020 120    11    5000   12178  130803    4000  126803  126803     0.0   55.00  1217.8 12735.3   55.00 12680.3 12680.3    0.00
 2020 121    12    5000   12178  130801    4000  126801  126801     0.0   55.00  1217.8 12735.1   55.00 12680.1 12680.1    0.00
 2020 122    13    5000   12177  130799    4000  126799  126799     0.0   55.00  1217.7 12734.9   55.00 12679.9 12679.9    0.00
 2020 123    14    5000   12177  130796    4000  126796  126796     0.0   55.00  1217.7 12734.6   55.00 12679.6 12679.6    0.00
 2020 124    15    5000   12177  130793    4000  126793  126793     0.0   55.00  1217.7 12734.3   55.00 12679.3 12679.3    0.00
 2020 125    16    5000   12176  130791    4000  126791  126791     0.0   55.00  1217.6 12734.1   55.00 12679.1 12679.1    0.00
 2020 126    17    5000   12176  130788    4000  126788  126788     0.0   55.00  1217.6 12733.8   55.00 12678.8 12678.8    0.00
 2020 127    18    5000   12176  130786    4000  126786  126786     0.0   55.00  1217.6 12733.6   55.00 12678.6 12678.6    0.00
 2020 128    19    5000   12176  130785    4000  126785  126785     0.0   55.00  1217.6 12733.5   55.00 12678.5 12678.5    0.00
 2020 129    20    5000   12175  130783    4000  126783  126783     0.0   55.00  1217.5 12733.3   55.00 12678.3 12678.3    0.00
 2020 130    21    5000   12175  130782    4000  126782  126782     0.0   55.00  1217.5 12733.2   55.00 12678.2 12678.2    0.00
 2020 131    22    5000   12175  130781    4000  126781  126781     0.0   55.00  1217.5 12733.1   55.00 12678.1 12678.1    0.00
 2020 132    23    5000   12175  130780    4000  126780  126780     0.0   55.00  1217.5 12733.0   55.00 12678.0 12678.0    0.00
 2020 133    24    5000   12175  130780    4000  126780  126780     0.0   55.00  1217.5 12733.0   55.00 12678.0 12678.0    0.00
 2020 134    25    5000   12175  130780    4000  126780  126780     0.0   55.00  1217.5 12733.0   55.00 12678.0 12678.0    0.00
 2020 135    26    5000   12175  130779    4000  126779  126779     0.0   55.00  1217.5 12732.9   55.00 12677.9 12677.9    0.00
 2020 136    27    5000   12175  130779    4000  126779  126779     0.0   55.00  1217.5 12732.9   55.00 12677.9 12677.9    0.00
 2020 137    28    5000   12175  130778    4000  126778  126778     0.0   55.00  1217.5 12732.8   55.00 12677.8 12677.8    0.00
 2020 138    29    5000   12174  130777    4000  126777  126777     0.0   55.00  1217.4 12732.7   55.00 12677.7 12677.7    0.00
 2020 139    30    5000   12174  130775    4000  126775  126775     0.0   55.00  1217.4 12732.5   55.00 12677.5 12677.5    0.00
 2020 140    31    5000   12174  130773    4000  126773  126773     0.0   55.00  1217.4 12732.3   55.00 12677.3 12677.3    0.00
 2020 141    32    5000   12173  130771    4000  126771  126771     0.0   55.00  1217.3 12732.1   55.00 12677.1 12677.1    0.00
 2020 142    33    5000   12173  130768    4000  126768  126768     0.0   55.00  1217.3 12731.8   55.00 12676.8 12676.8    0.00
 2020 143    34    5000   12173  130766    4000  126766  126766     0.0   55.00  1217.3 12731.6   55.00 12676.6 12676.6    0.00
 2020 144    35    5000   12173  130763    4000  126763  126763     0.0   55.00  1217.3 12731.3   55.00 12676.3 12676.3    0.00
 2020 145    36    5000   12172  130761    4000  126761  126761     0.0   55.00  1217.2 12731.1   55.00 12676.1 12676.1    0.00
 2020 146    37    5000   12172  130758    4000  126758  126758     0.0   55.00  1217.2 12730.8   55.00 12675.8 12675.8    0.00
 2020 147    38    5000   12171  130755    4000  126755  126755     0.0   55.00  1217.1 12730.5   55.00 12675.5 12675.5    0.00
 2020 148    39    5000   12171  130752    4000  126752  126752     0.0   55.00  1217.1 12730.2   55.00 12675.2 12675.2    0.00
 2020 149    40    5000   12171  130750    4000  126750  126750     0.0   55.00  1217.1 12730.0   55.00 12675.0 12675.0    0.00
 2020 150    41    5000   12170  130747    4000  126747  126747     0.0   55.00  1217.0 12729.7   55.00 12674.7 12674.7    0.00
 2020 151    42    5000   12170  130745    4000  126745  126745     0.0   55.00  1217.0 12729.5   55.00 12674.5 12674.5    0.00
 2020 152    43    5000   12170  130741    4000  126741  126741     0.1   55.00  1217.0 12729.1   55.00 12674.1 12674.1    0.00
 2020 153    44    5000   12169  130738    4000  126738  126738     0.1   55.00  1216.9 12728.8   55.00 12673.8 12673.8    0.00
 2020 154    45    5000   12169  130734    4000  126734  126734     0.2   55.00  1216.9 12728.4   55.00 12673.4 12673.4    0.01
 2020 155    46    5000   12168  130729    4000  126729  126729     0.3   55.00  1216.8 12727.9   55.00 12672.9 12672.9    0.01
 2020 156    47    5000   12168  130725    4000  126725  126724     0.4   55.00  1216.8 12727.4   55.00 12672.4 12672.4    0.01
 2020 157    48    5000   12167  130720    4000  126720  126719     0.6   55.00  1216.7 12726.9   55.00 12671.9 12671.9    0.02
 2020 158    49    5000   12166  130715    4000  126715  126714     0.7   55.00  1216.6 12726.4   55.00 12671.4 12671.4    0.02
 2020 159    50    5000   12166  130710    4000  126710  126709     0.9   55.00  1216.6 12725.9   55.00 12670.9 12670.9    0.03
 2020 160    51    5000   12165  130704    4000  126704  126703     1.2   55.00  1216.5 12725.4   55.00 12670.4 12670.3    0.04
 2020 161    52    5000   12164  130699    4000  126699  126697     1.5   55.00  1216.4 12724.8   55.00 12669.8 12669.8    0.05
 2020 162    53    5000   12164  130694    4000  126694  126692     1.8   55.00  1216.4 12724.3   55.00 12669.3 12669.2    0.06
 2020 163    54    5000   12163  130690    4000  126690  126687     2.2   55.00  1216.3 12723.8   55.00 12668.8 12668.8    0.06
 2020 164    55    5000   12163  130686    4000  126686  126683     2.6   55.00  1216.3 12723.4   55.00 12668.4 12668.3    0.08
 2020 165    56    5000   12162  130683    4000  126683  126679     3.2   55.00  1216.2 12723.0   55.00 12668.0 12667.9    0.09
 2020 166    57    5000   12162  130680    4000  126680  126676     3.9   55.00  1216.2 12722.7   55.00 12667.7 12667.6    0.10
 2020 167    58    5000   12161  130676    4000  126676  126671     4.8   55.00  1216.1 12722.2   55.00 12667.2 12667.1    0.11
 2020 168    59    5000   12161  130672    4000  126672  126666     5.7   55.00  1216.1 12721.7   55.00 12666.7 12666.6    0.13
 2020 169    60    5000   12160  130667    4000  126667  126660     6.7   55.00  1216.0 12721.2   55.00 12666.2 12666.0    0.15
 2020 170    61    5000   12159  130662    4000  126662  126654     7.8   55.00  1215.9 12720.6   55.00 12665.6 12665.4    0.17
 2020 171    62    5000   12159  130657    4000  126657  126648     9.0   55.00  1215.9 12720.0   55.00 12665.0 12664.8    0.19
 2020 172    63    5000   12158  130653    4000  126653  126643    10.3   55.00  1215.8 12719.5   55.00 12664.5 12664.3    0.21
 2020 173    64    5000   12158  130650    4000  126650  126638    11.6   55.00  1215.8 12719.1   55.00 12664.1 12663.8    0.23
 2020 174    65    5000   12157  130647    4000  126647  126634    13.0   55.00  1215.7 12718.6   55.00 12663.6 12663.4    0.25
 2020 175    66    5000   12157  130644    4000  126644  126630    14.4   55.00  1215.7 12718.2   55.00 12663.2 12662.9    0.28
 2020 176    67    5000   12156  130641    4000  126641  126625    15.8   55.00  1215.6 12717.8   55.00 12662.8 12662.5    0.30
 2020 177    68    5000   12156  130638    4000  126638  126621    17.3   55.00  1215.6 12717.4   55.00 12662.4 12662.1    0.33
 2020 178    69    5000   12155  130635    4000  126635  126617    18.8   55.00  1215.5 12717.0   55.00 12662.0 12661.6    0.36
 2020 179    70    5000   12155  130632    4000  126632  126612    20.3   55.00  1215.5 12716.6   55.00 12661.6 12661.2    0.38
 2020 180    71    5000   12154  130629    4000  126629  126607    21.9   55.00  1215.4 12716.1   55.00 12661.1 12660.7    0.42
 2020 181    72    5000   12154  130626    4000  126626  126602    23.3   55.00  1215.4 12715.6   55.00 12660.6 12660.2    0.45
 2020 182    73    5000   12153  130622    4000  126622  126597    24.7   55.00  1215.3 12715.1   55.00 12660.1 12659.7    0.48
 2020 183    74    5000   12153  130618    4000  126618  126592    26.2   55.00  1215.3 12714.7   55.00 12659.7 12659.2    0.51
 2020 184    75    5000   12152  130615    4000  126615  126588    27.7   55.00  1215.2 12714.2   55.00 12659.2 12658.7    0.54
 2020 185    76    5000   12152  130613    4000  126613  126583    29.3   55.00  1215.2 12713.8   55.00 12658.8 12658.2    0.58
 2020 186    77    5000   12152  130610    4000  126610  126579    30.9   55.00  1215.2 12713.4   55.00 12658.4 12657.8    0.61
 2020 187    78    5000   12151  130607    4000  126607  126575    32.6   55.00  1215.1 12713.0   55.00 12658.0 12657.4    0.64
 2020 188    79    5000   12151  130605    4000  126605  126570    34.3   55.00  1215.1 12712.6   55.00 12657.6 12656.9    0.67
 2020 189    80    5000   12151  130602    4000  126602  126566    35.9   55.00  1215.0 12712.2   55.00 12657.2 12656.5    0.71
 2020 190    81    5000   12150  130599    4000  126599  126561    37.6   55.00  1215.0 12711.7   55.00 12656.7 12656.0    0.74
 2020 191    82    5000   12150  130596    4000  126596  126557    39.3   55.00  1215.0 12711.3   55.00 12656.3 12655.5    0.78
 2020 192    83    5000   12149  130593    4000  126593  126552    40.8   55.00  1214.9 12710.8   55.00 12655.8 12655.0    0.82
 2020 193    84    5000   12149  130589    4000  126589  126547    42.3   55.00  1214.9 12710.4   55.00 12655.4 12654.5    0.85
 2020 194    85    5000   12148  130586    4000  126586  126542    43.9   55.00  1214.8 12709.9   55.00 12654.9 12654.0    0.89
 2020 195    86    5000   12148  130583    4000  126583  126538    45.6   55.00  1214.7 12709.5   55.00 12654.5 12653.6    0.93
 2020 196    87    5000   12147  130580    4000  126580  126533    47.1   55.00  1214.7 12709.1   55.00 12654.1 12653.1    0.97
 2020 197    88    5000   12147  130577    4000  126577  126528    48.4   55.00  1214.6 12708.6   55.00 12653.6 12652.6    1.01
 2020 198    89    5000   12146  130573    4000  126573  126524    49.7   55.00  1214.6 12708.1   55.00 12653.1 12652.1    1.04
 2020 199    90    5000   12145  130570    4000  126570  126519    51.0   55.00  1214.5 12707.7   55.00 12652.7 12651.6    1.08
 2020 200    91    5000   12145  130566    4000  126566  126514    52.2   55.00  1214.4 12707.2   55.00 12652.2 12651.1    1.12
 2020 201    92    5000   12144  130562    4000  126562  126509    53.4   55.00  1214.4 12706.7   55.00 12651.7 12650.6    1.16
 2020 202    93    5000   12144  130558    4000  126558  126504    54.6   55.00  1214.3 12706.2   55.00 12651.2 12650.0    1.20
 2020 203    94    5000   12143  130554    4000  126554  126499    55.8   55.00  1214.2 12705.7   55.00 12650.7 12649.5    1.24
 2020 204    95    5000   12142  130551    4000  126551  126494    57.0   55.00  1214.2 12705.3   55.00 12650.3 12649.0    1.27
 2020 205    96    5000   12142  130547    4000  126547  126489    58.3   55.00  1214.1 12704.8   55.00 12649.8 12648.5    1.31
 2020 206    97    5000   12141  130544    4000  126544  126484    59.6   55.00  1214.1 12704.3   55.00 12649.3 12648.0    1.35
 2020 207    98    5000   12141  130540    4000  126540  126479    60.7   55.00  1214.0 12703.8   55.00 12648.8 12647.5    1.38
 2020 208    99    5000   12140  130536    4000  126536  126474    61.7   55.00  1213.9 12703.3   55.00 12648.3 12646.9    1.42
 2020 209   100    5000   12139  130531    4000  126531  126468    62.6   55.00  1213.9 12702.8   55.00 12647.8 12646.4    1.46
 2020 210   101    5000   12139  130527    4000  126527  126463    63.4   55.00  1213.8 12702.3   55.00 12647.3 12645.8    1.49
 2020 211   102    5000   12138  130522    4000  126522  126458    64.2   55.00  1213.7 12701.8   55.00 12646.8 12645.3    1.53
 2020 212   103    5000   12137  130518    4000  126518  126453    65.1   55.00  1213.7 12701.3   55.00 12646.3 12644.7    1.57
 2020 213   104    5000   12137  130514    4000  126514  126448    66.0   55.00  1213.6 12700.8   55.00 12645.8 12644.2    1.60
 2020 214   105    5000   12136  130510    4000  126510  126443    66.6   55.00  1213.6 12700.3   55.00 12645.3 12643.7    1.64
 2020 215   106    5000   12136  130506    4000  126506  126438    67.2   55.00  1213.5 12699.9   55.00 12644.9 12643.2    1.67
 2020 216   107    5000   12135  130502    4000  126502  126434    68.0   55.00  1213.4 12699.4   55.00 12644.4 12642.7    1.71
 2020 217   108    5000   12135  130498    4000  126498  126430    68.8   55.00  1213.4 12699.0   55.00 12644.0 12642.3    1.74
 2020 218   109    5000   12134  130495    4000  126495  126426    69.6   55.00  1213.3 12698.6   55.00 12643.6 12641.8    1.78
 2020 219   110    5000   12134  130492    4000  126492  126421    70.3   55.00  1213.3 12698.2   55.00 12643.2 12641.4    1.81
 2020 220   111    5000   12134  130488    4000  126488  126417    71.1   55.00  1213.3 12697.8   55.00 12642.8 12640.9    1.84
 2020 221   112    5000   12133  130484    4000  126484  126412    71.6   55.00  1213.2 12697.3   55.00 12642.3 12640.4    1.87
 2020 222   113    5000   12132  130479    4000  126479  126407    72.0   55.00  1213.1 12696.8   55.00 12641.8 12639.9    1.91
 2020 223   114    5000   12132  130474    4000  126474  126401    72.3   55.00  1213.1 12696.2   55.00 12641.2 12639.3    1.93
 2020 224   115    5000   12131  130468    4000  126468  126396    72.6   55.00  1213.0 12695.7   55.00 12640.7 12638.7    1.96
 2020 225   116    5000   12131  130463    4000  126463  126390    73.0   55.00  1212.9 12695.1   55.00 12640.1 12638.1    1.99
 2020 226   117    5000   12130  130458    4000  126458  126385    73.3   55.00  1212.9 12694.6   55.00 12639.6 12637.5    2.02
 2020 227   118    5000   12130  130453    4000  126453  126379    73.7   55.00  1212.8 12694.0   55.00 12639.0 12637.0    2.05
 2020 228   119    5000   12129  130448    4000  126448  126374    74.0   55.00  1212.8 12693.5   55.00 12638.5 12636.4    2.07
 2020 229   120    5000   12128  130443    4000  126443  126369    74.5   55.00  1212.7 12692.9   55.00 12637.9 12635.8    2.10
 2020 230   121    5000   12128  130438    4000  126438  126363    74.9   55.00  1212.6 12692.4   55.00 12637.4 12635.3    2.12
 2020 231   122    5000   12127  130434    4000  126434  126358    75.4   55.00  1212.6 12691.9   55.00 12636.9 12634.7    2.15
 2020 232   123    5000   12127  130429    4000  126429  126353    75.9   55.00  1212.5 12691.4   55.00 12636.4 12634.2    2.18
 2020 233   124    5000   12126  130424    4000  126424  126348    76.3   55.00  1212.5 12690.8   55.00 12635.8 12633.6    2.20
 2020 234   125    5000   12126  130419    4000  126419  126342    76.6   55.00  1212.4 12690.3   55.00 12635.3 12633.1    2.23
 2020 235   126    5000   12125  130413    4000  126413  126336    76.9   55.00  1212.3 12689.7   55.00 12634.7 12632.5    2.25
 2020 236   127    5000   12124  130408    4000  126408  126331    77.1   55.00  1212.3 12689.1   55.00 12634.1 12631.8    2.27
 2020 237   128    5000   12124  130402    4000  126402  126325    77.3   55.00  1212.2 12688.5   55.00 12633.5 12631.2    2.30
 2020 238   129    5000   12123  130396    4000  126396  126319    77.5   55.00  1212.2 12687.9   55.00 12632.9 12630.6    2.32
 2020 239   130    5000   12122  130390    4000  126390  126312    77.6   55.00  1212.1 12687.3   55.00 12632.3 12629.9    2.34
 2020 240   131    5000   12122  130384    4000  126384  126306    77.7   55.00  1212.0 12686.6   55.00 12631.6 12629.3    2.36
 2020 241   132    5000   12121  130378    4000  126378  126300    77.8   55.00  1211.9 12686.0   55.00 12631.0 12628.6    2.38
 2020 242   133    5000   12121  130372    4000  126372  126294    78.0   55.00  1211.9 12685.4   55.00 12630.4 12628.0    2.40
 2020 243   134    5000   12120  130366    4000  126366  126288    78.3   55.00  1211.8 12684.8   55.00 12629.8 12627.4    2.42
 2020 244   135    5000   12119  130361    4000  126361  126282    78.7   55.00  1211.8 12684.2   55.00 12629.2 12626.8    2.44
 2020 245   136    5000   12119  130356    4000  126356  126277    79.2   55.00  1211.7 12683.7   55.00 12628.7 12626.3    2.46
 2020 246   137    5000   12119  130352    4000  126352  126273    79.8   55.00  1211.7 12683.3   55.00 12628.3 12625.8    2.49
 2020 247   138    5000   12118  130349    4000  126349  126268    80.5   55.00  1211.6 12682.8   55.00 12627.8 12625.3    2.51
 2020 248   139    5000   12118  130344    4000  126344  126263    81.1   55.00  1211.6 12682.4   55.00 12627.4 12624.8    2.54
 2020 249   140    5000   12117  130341    4000  126341  126259    81.7   55.00  1211.5 12681.9   55.00 12626.9 12624.3    2.57
 2020 250   141    5000   12117  130336    4000  126336  126254    82.3   55.00  1211.5 12681.4   55.00 12626.4 12623.8    2.59
 2020 251   142    5000   12116  130332    4000  126332  126249    82.7   55.00  1211.4 12680.9   55.00 12625.9 12623.3    2.61
 2020 252   143    5000   12116  130327    4000  126327  126244    83.2   55.00  1211.4 12680.4   55.00 12625.4 12622.8    2.64
 2020 253   144    5000   12116  130324    4000  126324  126240    83.8   55.00  1211.4 12680.0   55.00 12625.0 12622.4    2.66
 2020 254   145    5000   12115  130321    4000  126321  126237    84.8   55.00  1211.3 12679.7   55.00 12624.7 12622.0    2.70
 2020 255   146    5000   12115  130320    4000  126320  126234    86.0   55.00  1211.3 12679.5   55.00 12624.5 12621.8    2.73
 2020 256   147    5000   12115  130319    4000  126319  126232    87.3   55.00  1211.3 12679.3   55.00 12624.3 12621.6    2.77
 2020 257   148    5000   12115  130319    4000  126319  126230    88.7   55.00  1211.3 12679.1   55.00 12624.1 12621.3    2.81
 2020 258   149    5000   12115  130317    4000  126317  126227    89.7   55.00  1211.2 12678.9   55.00 12623.9 12621.1    2.84
 2020 259   150    5000   12114  130315    4000  126315  126224    90.5   55.00  1211.2 12678.6   55.00 12623.6 12620.7    2.87
 2020 260   151    5000   12114  130311    4000  126311  126220    91.0   55.00  1211.2 12678.2   55.00 12623.2 12620.3    2.90
 2020 261   152    5000   12113  130308    4000  126308  126216    91.5   55.00  1211.1 12677.8   55.00 12622.8 12619.9    2.92
 2020 262   153    5000   12113  130304    4000  126304  126212    92.0   55.00  1211.1 12677.4   55.00 12622.4 12619.4    2.95
 2020 263   154    5000   12113  130301    4000  126301  126208    92.5   55.00  1211.1 12677.0   55.00 12622.0 12619.0    2.97
 2020 264   155    5000   12112  130297    4000  126297  126204    92.9   55.00  1211.0 12676.6   55.00 12621.6 12618.6    3.00
 2020 265   156    5000   12112  130291    4000  126291  126200    91.3   55.00  1211.0 12676.1   55.00 12621.1 12618.2    2.98
 2020 266   157    5000   12112  130285    4000  126285  126195    89.6   55.00  1210.9 12675.6   55.00 12620.6 12617.7    2.95
 2020 267   158    5000   12111  130278    4000  126278  126190    87.9   55.00  1210.9 12675.1   55.00 12620.1 12617.2    2.92
 2020 268   159    5000   12111  130272    4000  126272  126185    86.2   55.00  1210.8 12674.5   55.00 12619.5 12616.6    2.89
