*SOIL-PLANT-ATMOSPHERE MODULE OUTPUT FILE

*DSSAT Cropping System Model Ver. 4.8.2.000 -release  NOV 03, 2024 05:23:59

*RUN   1        : silt_loam_13in_irr        MZCER048 UNLI2201    1
 MODEL          : MZCER048 - Maize
 EXPERIMENT     : UNLI2201 MZ IRRIGATED MAIZE PRODUCTION
 DATA PATH      :
 TREATMENT  1   : silt_loam_13in_irr        MZCER048
  
!                                                                                                                                                                                        Soil evaporation (mm/d) by soil depth (cm):
!                                                                                                                                                                                        0-5    5-15   15-23   23-38   38-53   53-61   61-69   69-84   84-99  99-160
@YEAR DOY   DAS   SRAA  TMAXA  TMINA    REFA    EOAA    EOPA    EOSA    ETAA    EPAA    ESAA    EFAA    EMAA    EOAC    ETAC    EPAC    ESAC    EFAC    EMAC    KCAA    KBSA    KEAA    ES1D    ES2D    ES3D    ES4D    ES5D    ES6D    ES7D    ES8D    ES9D  ES10D   TRWUD   TWUPD
 2022 121     1  23.70  16.20   3.30 -99.000   4.768   0.000   4.768   0.931   0.000   0.931   0.000   0.000    4.77    0.93    0.00    0.93    0.00    0.00 -99.000 -99.000 -99.000   0.772   0.102   0.023   0.017   0.006   0.002   0.001   0.002   0.002   0.003   0.000   0.000
 2022 122     2   3.80   9.10   0.50 -99.000   0.658   0.000   0.658   0.658   0.000   0.658   0.000   0.000    5.43    1.59    0.00    1.59    0.00    0.00 -99.000 -99.000 -99.000   0.177   0.130   0.058   0.070   0.042   0.017   0.015   0.032   0.027   0.089   0.000   0.000
 2022 123     3  17.50  11.50  -2.30 -99.000   3.248   0.000   3.248   3.248   0.000   3.248   0.000   0.000    8.67    4.84    0.00    4.84    0.00    0.00 -99.000 -99.000 -99.000   0.918   0.652   0.286   0.335   0.200   0.081   0.074   0.153   0.130   0.420   0.000   0.000
 2022 124     4   3.60   8.10   4.60 -99.000   0.665   0.000   0.665   0.665   0.000   0.665   0.000   0.000    9.34    5.50    0.00    5.50    0.00    0.00 -99.000 -99.000 -99.000   0.189   0.127   0.061   0.070   0.042   0.017   0.015   0.032   0.027   0.087   0.000   0.000
 2022 125     5  11.10  13.80   6.30 -99.000   2.310   0.000   2.310   2.310   0.000   2.310   0.000   0.000   11.65    7.81    0.00    7.81    0.00    0.00 -99.000 -99.000 -99.000   0.661   0.421   0.218   0.250   0.148   0.060   0.053   0.110   0.092   0.297   0.000   0.000
 2022 126     6  24.40  26.90   2.80 -99.000   5.861   0.000   5.861   5.861   0.000   5.861   0.000   0.000   17.51   13.67    0.00   13.67    0.00    0.00 -99.000 -99.000 -99.000   1.495   1.043   0.550   0.672   0.404   0.165   0.147   0.306   0.255   0.825   0.000   0.000
 2022 127     7  21.80  27.30   8.40 -99.000   5.393   0.000   5.393   5.393   0.000   5.393   0.000   0.000   22.90   19.07    0.00   19.07    0.00    0.00 -99.000 -99.000 -99.000   1.545   0.922   0.482   0.590   0.355   0.146   0.130   0.269   0.224   0.728   0.000   0.000
 2022 128     8  22.40  24.60  11.50 -99.000   5.691   0.000   5.691   5.691   0.000   5.691   0.000   0.000   28.59   24.76    0.00   24.76    0.00    0.00 -99.000 -99.000 -99.000   1.591   0.953   0.495   0.631   0.383   0.157   0.141   0.294   0.247   0.800   0.000   0.000
 2022 129     9  26.00  23.00  10.30 -99.000   6.233   0.000   6.233   5.864   0.000   5.864   0.000   0.000   34.83   30.62    0.00   30.62    0.00    0.00 -99.000 -99.000 -99.000   1.416   0.992   0.522   0.689   0.420   0.173   0.155   0.326   0.276   0.895   0.000   0.000
 2022 130    10  27.30  24.30   7.30 -99.000   6.383   0.000   6.383   5.565   0.000   5.565   0.000   0.000   41.21   36.19    0.00   36.19    0.00    0.00 -99.000 -99.000 -99.000   1.222   0.941   0.504   0.673   0.413   0.170   0.153   0.324   0.275   0.891   0.000   0.000
 2022 131    11  22.30  32.40  12.80 -99.000   5.957   0.000   5.957   0.825   0.000   0.825   0.000   0.000   47.17   37.01    0.00   37.01    0.00    0.00 -99.000 -99.000 -99.000   0.675   0.095   0.023   0.016   0.006   0.002   0.001   0.002   0.002   0.003   0.000   0.000
 2022 132    12  18.50  30.80  12.30 -99.000   4.813   0.000   4.813   0.766   0.000   0.766   0.000   0.000   51.98   37.78    0.00   37.78    0.00    0.00 -99.000 -99.000 -99.000   0.616   0.094   0.023   0.016   0.006   0.002   0.001   0.002   0.002   0.003   0.000   0.000
 2022 133    13  24.00  24.20   6.30 -99.000   5.464   0.000   5.464   0.711   0.000   0.711   0.000   0.000   57.44   38.49    0.00   38.49    0.00    0.00 -99.000 -99.000 -99.000   0.562   0.094   0.023   0.016   0.006   0.002   0.001   0.002   0.002   0.003   0.000   0.000
 2022 134    14  23.00  22.90   7.90 -99.000   5.201   0.000   5.201   0.661   0.000   0.661   0.000   0.000   62.64   39.15    0.00   39.15    0.00    0.00 -99.000 -99.000 -99.000   0.513   0.093   0.022   0.016   0.006   0.002   0.001   0.002   0.002   0.003   0.000   0.000
 2022 135    15  26.60  22.90   9.20 -99.000   6.062   0.000   6.062   0.660   0.000   0.660   0.000   0.000   68.71   39.81    0.00   39.81    0.00    0.00 -99.000 -99.000 -99.000   0.512   0.093   0.022   0.016   0.006   0.002   0.001   0.002   0.002   0.003   0.000   0.000
 2022 136    16  26.40  29.10   7.40 -99.000   6.426   0.000   6.426   0.671   0.000   0.671   0.000   0.000   75.13   40.48    0.00   40.48    0.00    0.00 -99.000 -99.000 -99.000   0.524   0.092   0.022   0.016   0.006   0.002   0.001   0.002   0.002   0.003   0.000   0.000
 2022 137    17  23.00  28.60  15.30 -99.000   5.914   0.000   5.914   0.638   0.000   0.638   0.000   0.000   81.05   41.12    0.00   41.12    0.00    0.00 -99.000 -99.000 -99.000   0.491   0.092   0.022   0.016   0.006   0.002   0.001   0.002   0.002   0.003   0.000   0.000
 2022 138    18  27.10  29.60  10.40 -99.000   6.762   0.017   6.745   0.611   0.017   0.594   0.000   0.000   87.81   41.73    0.02   41.71    0.00    0.00 -99.000 -99.000 -99.000   0.448   0.091   0.022   0.016   0.006   0.002   0.001   0.002   0.002   0.003   0.002   0.088
 2022 139    19  21.40  31.40   8.80 -99.000   5.367   0.025   5.343   0.579   0.025   0.554   0.000   0.000   93.17   42.31    0.04   42.27    0.00    0.00 -99.000 -99.000 -99.000   0.408   0.091   0.022   0.016   0.006   0.002   0.001   0.002   0.002   0.003   0.002   0.075
 2022 140    20   8.10  11.90   6.80 -99.000   1.532   0.011   1.522   0.528   0.011   0.517   0.000   0.000   94.71   42.83    0.05   42.78    0.00    0.00 -99.000 -99.000 -99.000   0.372   0.090   0.022   0.016   0.006   0.002   0.001   0.002   0.002   0.003   0.001   0.074
 2022 141    21  14.20  13.80  -0.60 -99.000   2.554   0.018   2.536   0.502   0.018   0.484   0.000   0.000   97.26   43.34    0.07   43.27    0.00    0.00 -99.000 -99.000 -99.000   0.340   0.090   0.022   0.016   0.006   0.002   0.001   0.002   0.002   0.003   0.002   0.072
 2022 142    22  19.60  17.40  -3.30 -99.000   3.621   0.015   3.606   0.468   0.015   0.453   0.000   0.000  100.88   43.81    0.09   43.72    0.00    0.00 -99.000 -99.000 -99.000   0.310   0.089   0.022   0.016   0.006   0.002   0.001   0.002   0.002   0.003   0.002   0.072
 2022 143    23   4.20  12.30   7.10 -99.000   0.797   0.000   0.797   0.797   0.000   0.797   0.000   0.000  101.68   44.60    0.09   44.52    0.00    0.00 -99.000 -99.000 -99.000   0.192   0.155   0.073   0.089   0.053   0.022   0.020   0.042   0.036   0.116   0.000   0.074
 2022 144    24   8.60  13.00   6.60 -99.000   1.799   0.002   1.798   1.799   0.002   1.798   0.000   0.000  103.48   46.40    0.09   46.31    0.00    0.00 -99.000 -99.000 -99.000   0.558   0.381   0.178   0.176   0.099   0.040   0.035   0.072   0.061   0.198   0.000   0.123
 2022 145    25  26.50  19.00   7.70 -99.000   6.112   0.008   6.104   6.112   0.008   6.104   0.000   0.000  109.59   52.51    0.10   52.42    0.00    0.00 -99.000 -99.000 -99.000   1.737   1.307   0.673   0.704   0.371   0.148   0.119   0.231   0.192   0.623   0.001   0.122
 2022 146    26  28.80  27.30   3.70 -99.000   7.119   0.018   7.102   7.119   0.018   7.102   0.000   0.000  116.71   59.63    0.11   59.52    0.00    0.00 -99.000 -99.000 -99.000   1.893   1.453   0.751   0.945   0.502   0.211   0.157   0.271   0.220   0.698   0.002   0.124
 2022 147    27  27.00  32.90   6.80 -99.000   7.320   0.031   7.288   7.320   0.031   7.288   0.000   0.000  124.03   66.95    0.14   66.81    0.00    0.00 -99.000 -99.000 -99.000   1.871   1.440   0.745   1.008   0.569   0.260   0.188   0.287   0.228   0.694   0.003   0.128
 2022 148    28  23.90  31.00  11.00 -99.000   6.544   0.048   6.495   6.543   0.048   6.495   0.000   0.000  130.57   73.50    0.19   73.30    0.00    0.00 -99.000 -99.000 -99.000   1.619   1.246   0.644   0.899   0.542   0.264   0.196   0.269   0.209   0.607   0.005   0.134
 2022 149    29  21.10  28.30  15.00 -99.000   5.771   0.103   5.667   5.770   0.103   5.667   0.000   0.000  136.34   79.27    0.30   78.97    0.00    0.00 -99.000 -99.000 -99.000   1.382   1.059   0.547   0.769   0.494   0.238   0.200   0.256   0.193   0.530   0.010   0.145
 2022 150    30  16.50  18.60  10.60 -99.000   3.850   0.114   3.736   3.849   0.114   3.736   0.000   0.000  140.19   83.12    0.41   82.71    0.00    0.00 -99.000 -99.000 -99.000   0.925   0.634   0.363   0.464   0.330   0.160   0.146   0.194   0.144   0.375   0.011   0.170
 2022 151    31  15.50  20.40   8.40 -99.000   3.630   0.128   3.501   3.629   0.128   3.501   0.000   0.000  143.82   86.74    0.54   86.21    0.00    0.00 -99.000 -99.000 -99.000   0.822   0.589   0.331   0.432   0.295   0.138   0.126   0.197   0.152   0.420   0.013   0.193
 2022 152    32  20.60  20.00   8.60 -99.000   4.682   0.193   4.488   4.681   0.193   4.488   0.000   0.000  148.51   91.43    0.73   90.69    0.00    0.00 -99.000 -99.000 -99.000   0.996   0.759   0.419   0.557   0.368   0.166   0.151   0.259   0.206   0.607   0.019   0.219
 2022 153    33  23.50  24.20   5.00 -99.000   5.376   0.257   5.117   5.374   0.257   5.117   0.000   0.000  153.88   96.80    0.99   95.81    0.00    0.00 -99.000 -99.000 -99.000   1.079   0.868   0.474   0.640   0.413   0.180   0.164   0.302   0.246   0.753   0.026   0.263
 2022 154    34  24.50  25.90   7.70 -99.000   5.794   0.320   5.472   5.792   0.320   5.472   0.000   0.000  159.68  102.59    1.31  101.28    0.00    0.00 -99.000 -99.000 -99.000   1.090   0.932   0.506   0.691   0.438   0.186   0.170   0.330   0.273   0.856   0.032   0.320
 2022 155    35  25.90  30.40  11.20 -99.000   6.593   0.432   6.158   5.889   0.432   5.457   0.000   0.000  166.27  108.48    1.74  106.74    0.00    0.00 -99.000 -99.000 -99.000   0.994   0.933   0.510   0.703   0.441   0.184   0.169   0.338   0.283   0.902   0.043   0.383
 2022 156    36  19.80  29.30  12.60 -99.000   4.984   0.404   4.578   4.982   0.404   4.578   0.000   0.000  171.25  113.46    2.14  111.32    0.00    0.00 -99.000 -99.000 -99.000   0.747   0.776   0.434   0.607   0.378   0.157   0.143   0.294   0.248   0.795   0.040   0.450
 2022 157    37  27.20  29.20  14.10 -99.000   6.867   0.661   6.203   5.674   0.661   5.013   0.000   0.000  178.12  119.14    2.81  116.33    0.00    0.00 -99.000 -99.000 -99.000   0.795   0.827   0.472   0.670   0.420   0.172   0.159   0.329   0.277   0.893   0.066   0.497
 2022 158    38   9.40  23.50  11.40 -99.000   2.164   0.245   1.917   2.162   0.245   1.917   0.000   0.000  180.28  121.30    3.05  118.25    0.00    0.00 -99.000 -99.000 -99.000   0.469   0.295   0.156   0.226   0.143   0.059   0.054   0.113   0.095   0.307   0.024   0.606
 2022 159    39  29.80  24.90  11.00 -99.000   7.299   0.898   6.396   6.779   0.898   5.881   0.000   0.000  187.58  128.08    3.95  124.13    0.00    0.00 -99.000 -99.000 -99.000   1.622   0.937   0.461   0.646   0.410   0.169   0.156   0.325   0.273   0.882   0.090   0.626
 2022 160    40  17.90  26.70  15.10 -99.000   4.520   0.614   3.903   4.516   0.614   3.903   0.000   0.000  192.10  132.59    4.56  128.03    0.00    0.00 -99.000 -99.000 -99.000   0.946   0.642   0.323   0.444   0.285   0.118   0.109   0.227   0.191   0.618   0.061   0.756
 2022 161    41  26.20  29.60  13.10 -99.000   6.680   0.944   5.732   1.851   0.944   0.908   0.000   0.000  198.78  134.45    5.51  128.94    0.00    0.00 -99.000 -99.000 -99.000   0.763   0.093   0.020   0.015   0.006   0.002   0.001   0.002   0.002   0.003   0.094   0.862
 2022 162    42  27.30  32.70  19.40 -99.000   7.499   1.102   6.391   1.923   1.102   0.821   0.000   0.000  206.28  136.37    6.61  129.76    0.00    0.00 -99.000 -99.000 -99.000   0.679   0.091   0.020   0.015   0.006   0.002   0.001   0.002   0.002   0.003   0.110   0.987
 2022 163    43  26.90  34.60  18.80 -99.000   7.454   1.188   6.261   1.926   1.188   0.738   0.000   0.000  213.74  138.30    7.80  130.50    0.00    0.00 -99.000 -99.000 -99.000   0.600   0.088   0.020   0.015   0.006   0.002   0.001   0.002   0.002   0.003   0.119   1.126
 2022 164    44  27.40  41.20  21.10 -99.000  10.489   1.821   8.661   2.483   1.821   0.662   0.000   0.000  224.23  140.78    9.62  131.16    0.00    0.00 -99.000 -99.000 -99.000   0.527   0.085   0.019   0.015   0.006   0.002   0.001   0.002   0.002   0.003   0.182   1.266
 2022 165    45  27.30  30.00  18.10 -99.000   7.063   1.340   5.717   1.921   1.340   0.581   0.000   0.000  231.29  142.70   10.96  131.74    0.00    0.00 -99.000 -99.000 -99.000   0.450   0.081   0.018   0.015   0.006   0.002   0.001   0.002   0.002   0.003   0.134   1.334
 2022 166    46  29.00  30.60  14.00 -99.000   7.289   1.460   5.822   1.981   1.460   0.521   0.000   0.000  238.58  144.68   12.42  132.26    0.00    0.00 -99.000 -99.000 -99.000   0.394   0.078   0.018   0.015   0.006   0.002   0.001   0.002   0.002   0.003   0.146   1.342
 2022 167    47  28.90  31.60  11.20 -99.000   7.166   1.501   5.656   1.977   1.501   0.476   0.000   0.000  245.74  146.66   13.92  132.74    0.00    0.00 -99.000 -99.000 -99.000   0.354   0.075   0.017   0.014   0.006   0.002   0.001   0.002   0.002   0.003   0.150   1.464
 2022 168    48  27.80  38.90  19.80 -99.000   9.297   2.018   7.271   2.456   2.018   0.438   0.000   0.000  255.04  149.11   15.94  133.18    0.00    0.00 -99.000 -99.000 -99.000   0.321   0.071   0.016   0.014   0.006   0.002   0.001   0.002   0.002   0.003   0.202   1.617
 2022 169    49  28.20  37.20  24.40 -99.000   8.894   2.089   6.797   2.492   2.089   0.403   0.000   0.000  263.93  151.61   18.02  133.58    0.00    0.00 -99.000 -99.000 -99.000   0.291   0.067   0.015   0.014   0.006   0.002   0.001   0.002   0.002   0.003   0.209   1.753
 2022 170    50  26.40  36.60  24.50 -99.000   8.043   2.055   5.979   2.422   2.051   0.371   0.000   0.000  271.98  154.03   20.08  133.95    0.00    0.00 -99.000 -99.000 -99.000   0.265   0.062   0.014   0.014   0.005   0.002   0.001   0.002   0.002   0.003   0.205   1.899
 2022 171    51  21.80  36.60  23.00 -99.000   6.551   1.799   4.745   2.141   1.799   0.342   0.000   0.000  278.53  156.17   21.87  134.29    0.00    0.00 -99.000 -99.000 -99.000   0.242   0.057   0.014   0.013   0.005   0.002   0.001   0.002   0.002   0.003   0.180   2.050
 2022 172    52  16.70  27.20  12.00 -99.000   3.886   1.120   2.759   1.436   1.120   0.315   0.000   0.000  282.41  157.60   22.99  134.61    0.00    0.00 -99.000 -99.000 -99.000   0.221   0.053   0.013   0.013   0.005   0.002   0.001   0.002   0.002   0.003   0.112   1.976
 2022 173    53  23.10  30.80   9.10 -99.000   5.475   1.590   3.875   1.883   1.590   0.293   0.000   0.000  287.89  159.49   24.59  134.90    0.00    0.00 -99.000 -99.000 -99.000   0.201   0.051   0.012   0.013   0.005   0.002   0.001   0.002   0.002   0.003   0.159   1.877
 2022 174    54  28.80  35.40  18.20 -99.000   7.809   2.297   5.502   2.569   2.297   0.272   0.000   0.000  295.70  162.06   26.88  135.17    0.00    0.00 -99.000 -99.000 -99.000   0.184   0.049   0.011   0.013   0.005   0.002   0.001   0.002   0.002   0.003   0.230   1.628
 2022 175    55  23.10  31.90  19.40 -99.000   5.964   1.821   4.135   2.087   1.821   0.265   0.000   0.000  301.66  164.14   28.70  135.44    0.00    0.00 -99.000 -99.000 -99.000   0.181   0.046   0.010   0.012   0.005   0.002   0.001   0.002   0.002   0.003   0.182   1.409
 2022 176    56  22.80  24.90  15.30 -99.000   5.268   1.661   3.598   1.921   1.661   0.260   0.000   0.000  306.93  166.06   30.36  135.70    0.00    0.00 -99.000 -99.000 -99.000   0.178   0.045   0.010   0.012   0.005   0.002   0.001   0.002   0.002   0.003   0.166   1.376
 2022 177    57  21.10  24.40   7.80 -99.000   4.549   1.445   3.095   1.687   1.445   0.242   0.000   0.000  311.48  167.75   31.81  135.94    0.00    0.00 -99.000 -99.000 -99.000   0.162   0.044   0.010   0.011   0.005   0.002   0.001   0.002   0.002   0.003   0.144   1.406
 2022 178    58  28.70  29.30  13.40 -99.000   6.869   2.167   4.690   2.393   2.167   0.226   0.000   0.000  318.35  170.14   33.98  136.17    0.00    0.00 -99.000 -99.000 -99.000   0.148   0.043   0.010   0.011   0.005   0.002   0.001   0.002   0.002   0.003   0.217   1.458
 2022 179    59  26.10  35.00  12.80 -99.000   6.623   2.108   4.504   2.319   2.108   0.211   0.000   0.000  324.97  172.46   36.08  136.38    0.00    0.00 -99.000 -99.000 -99.000   0.135   0.042   0.009   0.010   0.005   0.002   0.001   0.002   0.002   0.003   0.211   1.531
 2022 180    60  24.30  38.10  19.80 -99.000   7.620   2.472   5.138   2.669   2.472   0.197   0.000   0.000  332.59  175.13   38.56  136.58    0.00    0.00 -99.000 -99.000 -99.000   0.123   0.041   0.009   0.010   0.005   0.002   0.001   0.002   0.002   0.003   0.247   1.593
 2022 181    61  20.00  34.10  19.90 -99.000   5.270   1.762   3.500   1.946   1.762   0.184   0.000   0.000  337.86  177.08   40.32  136.76    0.00    0.00 -99.000 -99.000 -99.000   0.112   0.040   0.009   0.009   0.004   0.002   0.001   0.002   0.002   0.003   0.176   1.630
 2022 182    62  21.10  30.70  17.70 -99.000   5.270   1.804   3.457   1.977   1.804   0.173   0.000   0.000  343.13  179.05   42.12  136.93    0.00    0.00 -99.000 -99.000 -99.000   0.103   0.039   0.009   0.008   0.004   0.002   0.001   0.002   0.002   0.003   0.180   1.655
 2022 183    63  23.20  28.40  15.90 -99.000   5.566   1.926   3.630   5.556   1.926   3.630   0.000   0.000  348.70  184.61   44.05  140.56    0.00    0.00 -99.000 -99.000 -99.000   1.080   0.482   0.151   0.253   0.241   0.119   0.116   0.258   0.219   0.711   0.193   1.499
 2022 184    64  24.00  34.50  20.60 -99.000   6.829   2.372   4.447   6.818   2.372   4.447   0.000   0.000  355.52  191.43   46.42  145.01    0.00    0.00 -99.000 -99.000 -99.000   1.844   0.709   0.154   0.217   0.213   0.107   0.106   0.237   0.202   0.657   0.237   2.687
 2022 185    65  25.80  37.00  19.40 -99.000   8.100   2.870   5.217   8.087   2.870   5.217   0.000   0.000  363.62  199.52   49.29  150.23    0.00    0.00 -99.000 -99.000 -99.000   1.777   0.962   0.267   0.269   0.264   0.135   0.134   0.304   0.259   0.845   0.287   2.851
 2022 186    66  24.40  36.90  19.90 -99.000   7.474   2.705   4.757   7.462   2.705   4.757   0.000   0.000  371.10  206.98   52.00  154.98    0.00    0.00 -99.000 -99.000 -99.000   1.634   0.983   0.342   0.219   0.208   0.109   0.108   0.248   0.212   0.694   0.271   3.555
 2022 187    67  14.10  28.80  18.80 -99.000   3.694   1.363   2.324   3.687   1.363   2.324   0.000   0.000  374.79  210.67   53.36  157.31    0.00    0.00 -99.000 -99.000 -99.000   0.757   0.517   0.210   0.111   0.093   0.050   0.050   0.115   0.099   0.323   0.136   3.633
 2022 188    68  20.90  27.70  20.40 -99.000   5.409   2.011   3.387   5.399   2.011   3.387   0.000   0.000  380.20  216.06   55.37  160.69    0.00    0.00 -99.000 -99.000 -99.000   1.158   0.711   0.328   0.184   0.127   0.068   0.069   0.159   0.137   0.448   0.201   4.119
 2022 189    69  27.30  31.70  18.70 -99.000   7.378   2.802   4.563   7.365   2.802   4.563   0.000   0.000  387.58  223.43   58.17  165.26    0.00    0.00 -99.000 -99.000 -99.000   1.436   0.895   0.442   0.351   0.178   0.097   0.098   0.227   0.196   0.643   0.280   4.327
 2022 190    70  27.10  36.40  19.60 -99.000   8.062   3.124   4.925   8.049   3.124   4.925   0.000   0.000  395.64  231.48   61.30  170.18    0.00    0.00 -99.000 -99.000 -99.000   1.331   0.937   0.477   0.503   0.202   0.111   0.113   0.266   0.230   0.756   0.312   4.354
 2022 191    71  27.40  37.80  22.30 -99.000   8.811   3.456   5.342   8.566   3.456   5.110   0.000   0.000  404.45  240.04   64.75  175.29    0.00    0.00 -99.000 -99.000 -99.000   1.301   0.953   0.485   0.556   0.212   0.119   0.122   0.288   0.250   0.824   0.346   4.206
 2022 192    72  27.80  27.70  15.10 -99.000   6.737   2.654   4.069   3.533   2.654   0.879   0.000   0.000  411.19  243.58   67.40  176.17    0.00    0.00 -99.000 -99.000 -99.000   0.741   0.092   0.021   0.013   0.003   0.001   0.001   0.002   0.001   0.003   0.265   4.109
 2022 193    73  26.80  30.50  12.60 -99.000   6.566   2.558   3.994   3.356   2.558   0.799   0.000   0.000  417.76  246.93   69.96  176.97    0.00    0.00 -99.000 -99.000 -99.000   0.667   0.088   0.020   0.013   0.003   0.001   0.001   0.002   0.001   0.003   0.256   4.163
 2022 194    74  25.00  36.10  17.90 -99.000   7.083   2.726   4.345   3.451   2.726   0.725   0.000   0.000  424.84  250.38   72.69  177.70    0.00    0.00 -99.000 -99.000 -99.000   0.599   0.083   0.019   0.012   0.003   0.001   0.001   0.002   0.001   0.003   0.273   4.213
 2022 195    75  29.30  38.90  22.10 -99.000   9.828   3.762   6.052   4.417   3.762   0.655   0.000   0.000  434.67  254.80   76.45  178.35    0.00    0.00 -99.000 -99.000 -99.000   0.536   0.078   0.018   0.012   0.003   0.001   0.001   0.002   0.001   0.003   0.376   4.217
 2022 196    76  27.20  34.70  17.50 -99.000   7.171   2.737   4.422   3.303   2.737   0.566   0.000   0.000  441.84  258.10   79.19  178.92    0.00    0.00 -99.000 -99.000 -99.000   0.455   0.072   0.016   0.012   0.003   0.001   0.001   0.002   0.001   0.003   0.274   4.173
 2022 197    77  20.10  34.50  19.70 -99.000   5.356   2.030   3.317   2.528   2.030   0.498   0.000   0.000  447.19  260.63   81.22  179.42    0.00    0.00 -99.000 -99.000 -99.000   0.393   0.067   0.015   0.011   0.003   0.001   0.001   0.002   0.001   0.003   0.203   3.905
 2022 198    78  27.40  34.10  17.00 -99.000   7.124   2.672   4.440   3.126   2.672   0.454   0.000   0.000  454.32  263.76   83.89  179.87    0.00    0.00 -99.000 -99.000 -99.000   0.354   0.063   0.015   0.011   0.003   0.001   0.001   0.002   0.001   0.003   0.267   3.838
 2022 199    79  28.30  38.90  19.40 -99.000   9.243   3.436   5.793   3.851   3.436   0.414   0.000   0.000  463.56  267.61   87.32  180.28    0.00    0.00 -99.000 -99.000 -99.000   0.321   0.059   0.013   0.010   0.003   0.001   0.001   0.002   0.001   0.003   0.344   3.843
 2022 200    80  29.20  34.60  15.30 -99.000   7.524   2.779   4.731   3.156   2.779   0.377   0.000   0.000  471.09  270.76   90.10  180.66    0.00    0.00 -99.000 -99.000 -99.000   0.291   0.052   0.012   0.010   0.003   0.001   0.001   0.002   0.001   0.003   0.278   3.446
 2022 201    81  28.10  34.20  13.20 -99.000   7.094   2.596   4.485   2.935   2.591   0.345   0.000   0.000  478.18  273.70   92.69  181.01    0.00    0.00 -99.000 -99.000 -99.000   0.265   0.048   0.011   0.009   0.003   0.001   0.001   0.002   0.001   0.003   0.259   2.568
 2022 202    82  25.50  38.00  17.10 -99.000   7.823   2.836   4.975   6.939   2.836   4.103   0.000   0.000  486.00  280.64   95.53  185.11    0.00    0.00 -99.000 -99.000 -99.000   1.284   0.538   0.220   0.353   0.178   0.095   0.103   0.273   0.242   0.816   0.284   2.251
 2022 203    83  27.40  34.80  19.40 -99.000   7.655   2.762   4.881   7.305   2.762   4.543   0.000   0.000  493.66  287.94   98.29  189.65    0.00    0.00 -99.000 -99.000 -99.000   1.691   0.660   0.203   0.314   0.173   0.089   0.099   0.267   0.238   0.809   0.276   3.404
 2022 204    84  23.60  36.20  23.40 -99.000   7.127   2.495   4.622   6.603   2.495   4.108   0.000   0.000  500.78  294.55  100.79  193.76    0.00    0.00 -99.000 -99.000 -99.000   1.326   0.652   0.192   0.289   0.168   0.086   0.096   0.262   0.235   0.802   0.250   2.813
 2022 205    85  24.80  28.80  17.20 -99.000   6.231   2.114   4.106   2.898   2.114   0.784   0.000   0.000  507.02  297.44  102.90  194.54    0.00    0.00 -99.000 -99.000 -99.000   0.697   0.061   0.009   0.007   0.002   0.001   0.001   0.002   0.001   0.003   0.211   2.580
 2022 206    86   5.60  22.10  18.10 -99.000   1.306   0.429   0.874   1.304   0.429   0.874   0.000   0.000  508.32  298.75  103.33  195.42    0.00    0.00 -99.000 -99.000 -99.000   0.278   0.126   0.041   0.061   0.037   0.019   0.021   0.058   0.053   0.181   0.043   2.523
 2022 207    87  15.30  27.40  17.90 -99.000   3.863   1.232   2.624   3.856   1.232   2.624   0.000   0.000  512.18  302.60  104.56  198.04    0.00    0.00 -99.000 -99.000 -99.000   0.888   0.386   0.118   0.174   0.106   0.053   0.059   0.167   0.151   0.521   0.123   2.487
 2022 208    88  16.60  28.80  13.60 -99.000   4.093   1.266   2.820   4.086   1.266   2.820   0.000   0.000  516.28  306.69  105.83  200.86    0.00    0.00 -99.000 -99.000 -99.000   1.087   0.511   0.131   0.152   0.094   0.047   0.052   0.148   0.134   0.464   0.127   2.419
 2022 209    89  18.40  24.40  15.60 -99.000   4.549   1.364   3.177   4.542   1.364   3.177   0.000   0.000  520.83  311.23  107.19  204.04    0.00    0.00 -99.000 -99.000 -99.000   1.182   0.692   0.185   0.154   0.096   0.048   0.052   0.152   0.138   0.478   0.136   3.279
 2022 210    90  15.40  25.90  16.40 -99.000   3.835   1.116   2.713   3.829   1.116   2.713   0.000   0.000  524.66  315.06  108.31  206.75    0.00    0.00 -99.000 -99.000 -99.000   0.875   0.592   0.210   0.141   0.089   0.044   0.048   0.141   0.128   0.446   0.112   3.242
 2022 211    91  27.20  28.70  15.30 -99.000   6.864   1.939   4.915   6.431   1.939   4.492   0.000   0.000  531.53  321.49  110.25  211.24    0.00    0.00 -99.000 -99.000 -99.000   1.316   0.975   0.404   0.243   0.153   0.076   0.083   0.244   0.222   0.776   0.194   3.197
 2022 212    92  21.80  33.20  17.70 -99.000   5.834   1.600   4.226   2.431   1.600   0.830   0.000   0.000  537.36  323.92  111.85  212.07    0.00    0.00 -99.000 -99.000 -99.000   0.703   0.094   0.018   0.006   0.002   0.001   0.001   0.002   0.001   0.003   0.160   3.130
 2022 213    93  25.60  37.30  15.00 -99.000   7.728   2.059   5.660   2.802   2.059   0.743   0.000   0.000  545.09  326.73  113.91  212.82    0.00    0.00 -99.000 -99.000 -99.000   0.620   0.091   0.017   0.006   0.002   0.001   0.001   0.002   0.001   0.003   0.206   3.111
 2022 214    94  24.00  38.90  19.30 -99.000   8.055   2.084   5.962   2.807   2.084   0.722   0.000   0.000  553.14  329.53  115.99  213.54    0.00    0.00 -99.000 -99.000 -99.000   0.605   0.086   0.016   0.006   0.002   0.001   0.001   0.002   0.001   0.003   0.208   3.093
 2022 215    95  25.50  33.20  18.40 -99.000   6.840   1.718   5.114   2.420   1.718   0.702   0.000   0.000  559.98  331.95  117.71  214.24    0.00    0.00 -99.000 -99.000 -99.000   0.590   0.081   0.015   0.006   0.002   0.001   0.001   0.002   0.001   0.003   0.172   3.081
 2022 216    96  25.50  34.60  16.20 -99.000   6.813   1.661   5.144   2.283   1.661   0.622   0.000   0.000  566.80  334.24  119.37  214.86    0.00    0.00 -99.000 -99.000 -99.000   0.516   0.077   0.014   0.006   0.002   0.001   0.001   0.002   0.001   0.003   0.166   3.106
 2022 217    97  25.10  37.50  22.10 -99.000   7.990   1.893   6.090   2.443   1.893   0.550   0.000   0.000  574.79  336.68  121.26  215.41    0.00    0.00 -99.000 -99.000 -99.000   0.449   0.073   0.013   0.006   0.002   0.001   0.001   0.002   0.001   0.003   0.189   3.022
 2022 218    98  21.70  30.30  21.50 -99.000   5.719   1.315   4.398   1.800   1.315   0.485   0.000   0.000  580.51  338.48  122.58  215.90    0.00    0.00 -99.000 -99.000 -99.000   0.389   0.068   0.012   0.006   0.002   0.001   0.001   0.002   0.001   0.003   0.131   2.777
 2022 219    99   7.20  22.30  14.20 -99.000   1.633   0.364   1.266   0.842   0.364   0.478   0.000   0.000  582.14  339.32  122.94  216.38    0.00    0.00 -99.000 -99.000 -99.000   0.386   0.065   0.012   0.006   0.002   0.001   0.001   0.002   0.001   0.003   0.036   2.690
 2022 220   100  26.10  30.70   8.50 -99.000   6.278   1.362   4.908   1.839   1.362   0.477   0.000   0.000  588.42  341.16  124.30  216.85    0.00    0.00 -99.000 -99.000 -99.000   0.387   0.064   0.012   0.006   0.002   0.001   0.001   0.002   0.001   0.003   0.136   2.590
 2022 221   101  25.50  34.70  16.50 -99.000   6.799   1.435   5.357   1.870   1.435   0.435   0.000   0.000  595.21  343.03  125.74  217.29    0.00    0.00 -99.000 -99.000 -99.000   0.349   0.060   0.011   0.006   0.002   0.001   0.001   0.002   0.001   0.003   0.144   2.221
 2022 222   102  25.70  36.20  15.80 -99.000   7.296   1.498   5.791   1.895   1.498   0.397   0.000   0.000  602.51  344.92  127.24  217.69    0.00    0.00 -99.000 -99.000 -99.000   0.316   0.055   0.010   0.006   0.002   0.001   0.001   0.002   0.001   0.003   0.150   2.059
 2022 223   103  24.80  36.00  15.30 -99.000   6.933   1.385   5.542   1.747   1.385   0.362   0.000   0.000  609.44  346.67  128.62  218.05    0.00    0.00 -99.000 -99.000 -99.000   0.287   0.050   0.010   0.006   0.002   0.001   0.001   0.002   0.001   0.003   0.139   1.310