*SOIL WATER DAILY OUTPUT FILE

*DSSAT Cropping System Model Ver. 4.8.2.000 -release  NOV 03, 2024 05:23:59

*RUN   1        : silt_loam_13in_irr        MZCER048 UNLI2201    1
 MODEL          : MZCER048 - Maize
 EXPERIMENT     : UNLI2201 MZ IRRIGATED MAIZE PRODUCTION
 DATA PATH      :
 TREATMENT  1   : silt_loam_13in_irr        MZCER048
  
!                                                                                                                                   Soil water content (mm3/mm3) by soil depth (cm):
!                                                                                                                                   0-5    5-15   15-23   23-38   38-53   53-61   61-69   69-84   84-99  99-114 114-130 130-145 145-160
@YEAR DOY   DAS    SWTD    SWXD    ROFC    DRNC    PREC    IR#C    IRRC   LATFC    DTWT    MWTD    TDFD    TDFC    ROFD    ROSD    SW1D    SW2D    SW3D    SW4D    SW5D    SW6D    SW7D    SW8D    SW9D   SW10D   SW11D   SW12D   SW13D
 2022 120     0     298     208       0       0       0       0       0       0     160    0.00     0.0     0.0    0.00    0.00   0.200   0.207   0.210   0.210   0.170   0.150   0.150   0.190   0.180   0.180   0.180   0.200   0.190
 2022 121     1     297     207       0       0       0       0       0       0     160    0.00     0.0     0.0    0.00    0.00   0.185   0.206   0.210   0.210   0.170   0.150   0.150   0.190   0.180   0.180   0.180   0.200   0.190
 2022 122     2     330     240       3       0      37       0       0       0     160    0.00     0.0     0.0    2.93    0.00   0.385   0.346   0.279   0.224   0.176   0.154   0.153   0.190   0.180   0.180   0.180   0.200   0.190
 2022 123     3     314     225       3      13      37       0       0       0     160    0.00     0.0     0.0    0.00    0.00   0.292   0.284   0.248   0.216   0.172   0.152   0.152   0.189   0.179   0.179   0.179   0.199   0.189
 2022 124     4     319     229       3      13      42       0       0       0     160    0.00     0.0     0.0    0.00    0.00   0.323   0.273   0.266   0.225   0.177   0.156   0.154   0.190   0.179   0.179   0.179   0.199   0.189
 2022 125     5     320     230       3      13      45       0       0       0     160    0.00     0.0     0.0    0.00    0.00   0.301   0.262   0.270   0.231   0.182   0.163   0.157   0.192   0.178   0.179   0.179   0.199   0.189
 2022 126     6     306     216       3      20      45       0       0       0     160    0.00     0.0     0.0    0.00    0.00   0.231   0.230   0.239   0.218   0.175   0.156   0.152   0.190   0.178   0.179   0.179   0.199   0.189
 2022 127     7     312     222       3      20      56       0       0       0     160    0.00     0.0     0.0    0.00    0.00   0.339   0.240   0.243   0.219   0.176   0.158   0.154   0.190   0.177   0.177   0.177   0.197   0.188
 2022 128     8     302     212       3      25      56       0       0       0     160    0.00     0.0     0.0    0.00    0.00   0.251   0.217   0.223   0.211   0.171   0.153   0.150   0.188   0.178   0.179   0.179   0.199   0.189
 2022 129     9     296     206       3      25      56       0       0       0     160    0.00     0.0     0.0    0.00    0.00   0.203   0.203   0.212   0.207   0.168   0.151   0.148   0.188   0.178   0.178   0.179   0.198   0.189
 2022 130    10     290     200       3      25      56       0       0       0     160    0.00     0.0     0.0    0.00    0.00   0.178   0.194   0.205   0.202   0.165   0.148   0.147   0.186   0.176   0.177   0.177   0.197   0.187
 2022 131    11     289     200       3      25      56       0       0       0     160    0.00     0.0     0.0    0.00    0.00   0.165   0.193   0.205   0.202   0.165   0.148   0.147   0.186   0.176   0.177   0.177   0.197   0.187
 2022 132    12     289     199       3      25      56       0       0       0     160    0.00     0.0     0.0    0.00    0.00   0.152   0.192   0.205   0.202   0.165   0.148   0.147   0.186   0.176   0.177   0.177   0.197   0.187
 2022 133    13     288     198       3      25      56       0       0       0     160    0.00     0.0     0.0    0.00    0.00   0.141   0.191   0.204   0.202   0.165   0.148   0.147   0.186   0.176   0.177   0.177   0.197   0.187
 2022 134    14     287     197       3      25      56       0       0       0     160    0.00     0.0     0.0    0.00    0.00   0.131   0.190   0.204   0.202   0.165   0.148   0.147   0.186   0.176   0.177   0.177   0.197   0.187
 2022 135    15     288     198       3      25      57       0       0       0     160    0.00     0.0     0.0    0.00    0.00   0.141   0.189   0.204   0.202   0.165   0.148   0.147   0.186   0.176   0.177   0.177   0.197   0.187
 2022 136    16     287     197       3      25      58       0       0       0     160    0.00     0.0     0.0    0.00    0.00   0.136   0.188   0.204   0.202   0.165   0.148   0.146   0.186   0.176   0.177   0.177   0.197   0.187
 2022 137    17     287     197       3      25      58       0       0       0     160    0.00     0.0     0.0    0.00    0.00   0.126   0.187   0.203   0.201   0.165   0.148   0.146   0.186   0.176   0.177   0.177   0.197   0.187
 2022 138    18     286     196       3      25      58       0       0       0     160    0.00     0.0     0.0    0.00    0.00   0.117   0.186   0.203   0.201   0.165   0.148   0.146   0.186   0.176   0.177   0.177   0.197   0.187
 2022 139    19     285     196       3      25      58       0       0       0     160    0.00     0.0     0.0    0.00    0.00   0.109   0.185   0.203   0.201   0.165   0.148   0.146   0.186   0.176   0.177   0.177   0.197   0.187
 2022 140    20     285     195       3      25      58       0       0       0     160    0.00     0.0     0.0    0.00    0.00   0.101   0.184   0.202   0.201   0.165   0.148   0.146   0.186   0.176   0.177   0.177   0.197   0.187
 2022 141    21     284     195       3      25      58       0       0       0     160    0.00     0.0     0.0    0.00    0.00   0.095   0.183   0.202   0.201   0.165   0.148   0.146   0.185   0.176   0.177   0.177   0.197   0.187
 2022 142    22     284     194       3      25      58       0       0       0     160    0.00     0.0     0.0    0.00    0.00   0.088   0.182   0.202   0.201   0.165   0.148   0.146   0.185   0.176   0.177   0.177   0.197   0.187
 2022 143    23     319     229       3      25      68       1      25       0     160    0.00     0.0     0.0    0.00    0.00   0.384   0.317   0.260   0.215   0.168   0.148   0.146   0.185   0.176   0.177   0.177   0.197   0.187
 2022 144    24     345     255       3      25      71       2      51       0     160    0.00     0.0     0.0    0.00    0.00   0.377   0.376   0.379   0.258   0.188   0.162   0.152   0.186   0.176   0.176   0.177   0.196   0.187
 2022 145    25     364     275       3      25      71       3      76       0     160    0.00     0.0     0.0    0.00    0.00   0.353   0.367   0.373   0.331   0.229   0.201   0.171   0.191   0.176   0.175   0.176   0.195   0.186
 2022 146    26     383     293       3      25      71       4     102       0     160    0.00     0.0     0.0    0.00    0.00   0.350   0.365   0.372   0.363   0.266   0.252   0.203   0.200   0.181   0.175   0.174   0.194   0.185
 2022 147    27     401     311       3      25      71       5     127       0     160    0.00     0.0     0.0    0.00    0.00   0.350   0.365   0.372   0.380   0.294   0.304   0.242   0.214   0.190   0.181   0.173   0.193   0.184
 2022 148    28     420     330       3      25      71       6     152       0     160    0.00     0.0     0.0    0.00    0.00   0.355   0.367   0.373   0.386   0.319   0.344   0.292   0.234   0.202   0.189   0.179   0.192   0.183
 2022 149    29     439     349       3      25      71       7     178       0     160    0.00     0.0     0.0    0.00    0.00   0.360   0.369   0.374   0.387   0.340   0.344   0.345   0.265   0.223   0.202   0.187   0.197   0.182
 2022 150    30     442     352       3      25      77       7     178       0     160    0.00     0.0     0.0    0.00    0.00   0.361   0.328   0.367   0.348   0.326   0.345   0.346   0.295   0.247   0.220   0.199   0.206   0.186
 2022 151    31     381     291       3      82      77       7     178       0     160    0.00     0.0     0.0    0.00    0.00   0.279   0.273   0.300   0.290   0.262   0.266   0.266   0.252   0.219   0.203   0.191   0.203   0.189
 2022 152    32     343     254       3     115      77       7     178       0     160    0.00     0.0     0.0    0.00    0.00   0.226   0.238   0.258   0.254   0.223   0.217   0.218   0.225   0.202   0.193   0.185   0.202   0.189
 2022 153    33     320     230       3     133      77       7     178       0     160    0.00     0.0     0.0    0.00    0.00   0.193   0.216   0.232   0.232   0.199   0.188   0.188   0.209   0.192   0.186   0.182   0.201   0.189
 2022 154    34     306     216       3     142      77       7     178       0     160    0.00     0.0     0.0    0.00    0.00   0.169   0.202   0.216   0.219   0.184   0.171   0.171   0.199   0.185   0.182   0.181   0.199   0.189
 2022 155    35     296     207       3     145      77       7     178       0     160    0.00     0.0     0.0    0.00    0.00   0.147   0.191   0.206   0.210   0.176   0.160   0.160   0.193   0.181   0.181   0.179   0.198   0.189
 2022 156    36     291     201       3     146      77       7     178       0     160    0.00     0.0     0.0    0.00    0.00   0.130   0.181   0.199   0.206   0.171   0.154   0.154   0.190   0.180   0.179   0.179   0.199   0.189
 2022 157    37     286     196       3     146      78       7     178       0     160    0.00     0.0     0.0    0.00    0.00   0.131   0.170   0.191   0.201   0.168   0.150   0.152   0.189   0.178   0.178   0.177   0.197   0.188
 2022 158    38     296     206       3     146      90       7     178       0     160    0.00     0.0     0.0    0.00    0.00   0.302   0.198   0.188   0.199   0.167   0.150   0.151   0.188   0.177   0.177   0.177   0.197   0.187
 2022 159    39     289     199       3     146      90       7     178       0     160    0.00     0.0     0.0    0.00    0.00   0.225   0.194   0.194   0.194   0.164   0.147   0.149   0.186   0.175   0.175   0.175   0.195   0.186
 2022 160    40     285     195       3     146      90       7     178       0     160    0.00     0.0     0.0    0.00    0.00   0.198   0.191   0.187   0.191   0.162   0.146   0.148   0.185   0.174   0.174   0.174   0.194   0.185
 2022 161    41     283     193       3     146      90       7     178       0     160    0.00     0.0     0.0    0.00    0.00   0.179   0.187   0.184   0.190   0.162   0.146   0.148   0.185   0.174   0.174   0.174   0.194   0.185
 2022 162    42     281     191       3     146      90       7     178       0     160    0.00     0.0     0.0    0.00    0.00   0.161   0.182   0.180   0.188   0.162   0.146   0.148   0.185   0.174   0.174   0.174   0.194   0.185
 2022 163    43     279     190       3     146      90       7     178       0     160    0.00     0.0     0.0    0.00    0.00   0.144   0.177   0.176   0.187   0.162   0.146   0.148   0.185   0.174   0.174   0.174   0.194   0.185
 2022 164    44     277     187       3     146      90       7     178       0     160    0.00     0.0     0.0    0.00    0.00   0.127   0.169   0.170   0.184   0.162   0.146   0.148   0.185   0.174   0.174   0.174   0.194   0.185
 2022 165    45     275     185       3     146      90       7     178       0     160    0.00     0.0     0.0    0.00    0.00   0.114   0.164   0.165   0.182   0.162   0.146   0.148   0.185   0.174   0.174   0.174   0.194   0.185
 2022 166    46     273     183       3     146      90       7     178       0     160    0.00     0.0     0.0    0.00    0.00   0.105   0.157   0.160   0.180   0.161   0.146   0.148   0.185   0.174   0.174   0.174   0.194   0.185
 2022 167    47     271     181       3     146      90       7     178       0     160    0.00     0.0     0.0    0.00    0.00   0.097   0.151   0.154   0.178   0.160   0.146   0.148   0.185   0.174   0.174   0.174   0.194   0.185
 2022 168    48     269     179       3     146      90       7     178       0     160    0.00     0.0     0.0    0.00    0.00   0.090   0.142   0.146   0.174   0.159   0.146   0.148   0.185   0.174   0.174   0.174   0.194   0.185
 2022 169    49     266     176       3     146      90       7     178       0     160    0.00     0.0     0.0    0.00    0.00   0.084   0.134   0.139   0.171   0.158   0.146   0.148   0.185   0.174   0.174   0.174   0.194   0.185
 2022 170    50     264     174       3     146      90       7     178       0     160    0.00     0.0     0.0    0.00    0.00   0.079   0.126   0.131   0.168   0.157   0.145   0.148   0.185   0.174   0.174   0.174   0.194   0.185
 2022 171    51     262     172       3     146      90       7     178       0     160    0.00     0.0     0.0    0.00    0.00   0.074   0.119   0.125   0.165   0.155   0.145   0.148   0.185   0.174   0.174   0.174   0.194   0.185
 2022 172    52     260     170       3     146      90       7     178       0     160    0.00     0.0     0.0    0.00    0.00   0.070   0.115   0.120   0.163   0.155   0.145   0.147   0.185   0.174   0.174   0.174   0.194   0.185
 2022 173    53     258     168       3     146      90       7     178       0     160    0.00     0.0     0.0    0.00    0.00   0.066   0.111   0.114   0.159   0.153   0.144   0.147   0.185   0.174   0.174   0.174   0.194   0.185
 2022 174    54     256     166       3     146      90       7     178       0     160    0.00     0.0     0.0    0.00    0.00   0.062   0.106   0.106   0.154   0.150   0.143   0.147   0.184   0.174   0.174   0.174   0.194   0.185
 2022 175    55     254     164       3     146      91       7     178       0     160    0.00     0.0     0.0    0.00    0.00   0.065   0.103   0.103   0.149   0.148   0.142   0.147   0.184   0.174   0.174   0.174   0.194   0.185
 2022 176    56     252     162       3     146      91       7     178       0     160    0.00     0.0     0.0    0.00    0.00   0.061   0.101   0.100   0.143   0.145   0.141   0.146   0.184   0.174   0.174   0.174   0.194   0.185
 2022 177    57     250     160       3     146      91       7     178       0     160    0.00     0.0     0.0    0.00    0.00   0.058   0.099   0.098   0.139   0.143   0.140   0.145   0.184   0.174   0.174   0.174   0.194   0.185
 2022 178    58     248     158       3     146      91       7     178       0     160    0.00     0.0     0.0    0.00    0.00   0.055   0.097   0.096   0.132   0.139   0.138   0.144   0.184   0.174   0.174   0.174   0.194   0.185
 2022 179    59     246     156       3     146      91       7     178       0     160    0.00     0.0     0.0    0.00    0.00   0.052   0.095   0.095   0.125   0.135   0.136   0.143   0.184   0.174   0.174   0.174   0.194   0.185
 2022 180    60     243     153       3     146      91       7     178       0     160    0.00     0.0     0.0    0.00    0.00   0.050   0.094   0.093   0.117   0.131   0.134   0.142   0.184   0.174   0.174   0.174   0.194   0.185
 2022 181    61     241     151       3     146      91       7     178       0     160    0.00     0.0     0.0    0.00    0.00   0.047   0.093   0.092   0.111   0.128   0.132   0.140   0.184   0.174   0.174   0.174   0.194   0.185
 2022 182    62     239     149       3     146      91       7     178       0     160    0.00     0.0     0.0    0.00    0.00   0.045   0.092   0.091   0.105   0.124   0.130   0.139   0.183   0.174   0.174   0.174   0.194   0.185
 2022 183    63     259     169       3     146     117       7     178       0     160    0.00     0.0     0.0    0.00    0.00   0.367   0.174   0.088   0.098   0.119   0.127   0.136   0.181   0.172   0.173   0.173   0.193   0.184
 2022 184    64     261     171       3     146     125       7     178       0     160    0.00     0.0     0.0    0.00    0.00   0.345   0.212   0.104   0.094   0.114   0.124   0.134   0.179   0.171   0.172   0.172   0.192   0.183
 2022 185    65     253     163       3     146     125       7     178       0     160    0.00     0.0     0.0    0.00    0.00   0.244   0.188   0.136   0.091   0.109   0.120   0.131   0.177   0.169   0.170   0.171   0.190   0.181
 2022 186    66     273     183       4     146     154       7     178       0     160    0.00     0.0     0.0    1.36    0.00   0.350   0.300   0.208   0.093   0.105   0.117   0.128   0.175   0.168   0.169   0.169   0.189   0.180
 2022 187    67     271     181       4     146     155       7     178       0     160    0.00     0.0     0.0    0.00    0.00   0.294   0.272   0.239   0.105   0.103   0.116   0.127   0.174   0.167   0.168   0.169   0.189   0.180
 2022 188    68     276     186       4     146     166       7     178       0     160    0.00     0.0     0.0    0.00    0.00   0.361   0.272   0.257   0.122   0.101   0.114   0.125   0.173   0.166   0.168   0.168   0.188   0.179
 2022 189    69     269     179       4     146     166       7     178       0     160    0.00     0.0     0.0    0.00    0.00   0.263   0.229   0.225   0.164   0.097   0.112   0.123   0.171   0.165   0.166   0.167   0.187   0.178
 2022 190    70     261     171       4     146     166       7     178       0     160    0.00     0.0     0.0    0.00    0.00   0.205   0.203   0.204   0.174   0.094   0.109   0.121   0.169   0.163   0.165   0.166   0.185   0.177
 2022 191    71     254     164       4     146     168       7     178       0     160    0.00     0.0     0.0    0.00    0.00   0.190   0.189   0.188   0.165   0.090   0.106   0.118   0.166   0.162   0.164   0.165   0.184   0.176
 2022 192    72     251     161       4     146     168       7     178       0     160    0.00     0.0     0.0    0.00    0.00   0.176   0.181   0.180   0.161   0.089   0.105   0.117   0.166   0.162   0.164   0.165   0.184   0.176
 2022 193    73     247     157       4     146     168       7     178       0     160    0.00     0.0     0.0    0.00    0.00   0.158   0.173   0.173   0.158   0.088   0.103   0.116   0.166   0.161   0.164   0.165   0.184   0.176
 2022 194    74     244     154       4     146     168       7     178       0     160    0.00     0.0     0.0    0.00    0.00   0.146   0.164   0.165   0.153   0.087   0.102   0.115   0.165   0.161   0.164   0.165   0.184   0.176
 2022 195    75     240     150       4     146     168       7     178       0     160    0.00     0.0     0.0    0.00    0.00   0.128   0.152   0.154   0.148   0.086   0.100   0.113   0.164   0.161   0.164   0.165   0.184   0.176
 2022 196    76     236     147       4     146     168       7     178       0     160    0.00     0.0     0.0    0.00    0.00   0.114   0.144   0.146   0.143   0.085   0.098   0.112   0.164   0.161   0.164   0.165   0.184   0.176
 2022 197    77     234     144       4     146     168       7     178       0     160    0.00     0.0     0.0    0.00    0.00   0.105   0.137   0.139   0.140   0.084   0.097   0.111   0.164   0.160   0.164   0.165   0.184   0.176
 2022 198    78     231     141       4     146     168       7     178       0     160    0.00     0.0     0.0    0.00    0.00   0.097   0.128   0.131   0.135   0.084   0.096   0.110   0.163   0.160   0.164   0.165   0.184   0.176
 2022 199    79     227     137       4     146     168       7     178       0     160    0.00     0.0     0.0    0.00    0.00   0.090   0.117   0.120   0.129   0.083   0.093   0.108   0.162   0.160   0.164   0.165   0.184   0.176
 2022 200    80     224     134       4     146     168       7     178       0     160    0.00     0.0     0.0    0.00    0.00   0.084   0.110   0.110   0.124   0.082   0.092   0.106   0.162   0.159   0.164   0.165   0.184   0.176
 2022 201    81     221     131       4     146     168       7     178       0     160    0.00     0.0     0.0    0.00    0.00   0.079   0.105   0.104   0.117   0.081   0.089   0.104   0.161   0.159   0.164   0.165   0.184   0.176
 2022 202    82     231     141       4     146     186       7     178       0     160    0.00     0.0     0.0    0.00    0.00   0.318   0.137   0.097   0.106   0.079   0.085   0.100   0.158   0.156   0.162   0.163   0.183   0.175
 2022 203    83     224     134       4     146     186       7     178       0     160    0.00     0.0     0.0    0.00    0.00   0.230   0.145   0.094   0.099   0.077   0.082   0.097   0.155   0.154   0.161   0.162   0.181   0.174
 2022 204    84     217     127       4     146     186       7     178       0     160    0.00     0.0     0.0    0.00    0.00   0.183   0.133   0.090   0.094   0.076   0.079   0.094   0.152   0.152   0.159   0.161   0.180   0.172
 2022 205    85     214     124       4     146     186       7     178       0     160    0.00     0.0     0.0    0.00    0.00   0.161   0.123   0.090   0.093   0.075   0.078   0.093   0.152   0.152   0.159   0.161   0.180   0.172
 2022 206    86     218     128       4     146     191       7     178       0     160    0.00     0.0     0.0    0.00    0.00   0.236   0.132   0.089   0.092   0.075   0.078   0.092   0.151   0.151   0.159   0.160   0.180   0.172
 2022 207    87     215     125       4     146     191       7     178       0     160    0.00     0.0     0.0    0.00    0.00   0.199   0.129   0.087   0.090   0.074   0.077   0.090   0.149   0.150   0.158   0.160   0.179   0.171
 2022 208    88     235     145       4     146     215       7     178       0     160    0.00     0.0     0.0    0.16    0.00   0.362   0.238   0.120   0.089   0.073   0.076   0.089   0.148   0.149   0.157   0.159   0.178   0.171
 2022 209    89     230     141       4     146     216       7     178       0     160    0.00     0.0     0.0    0.00    0.00   0.280   0.232   0.143   0.087   0.073   0.075   0.087   0.146   0.147   0.156   0.158   0.177   0.170
 2022 210    90     227     137       4     146     216       7     178       0     160    0.00     0.0     0.0    0.00    0.00   0.227   0.212   0.169   0.086   0.072   0.074   0.086   0.145   0.146   0.155   0.157   0.176   0.169
 2022 211    91     220     130       4     146     216       7     178       0     160    0.00     0.0     0.0    0.00    0.00   0.184   0.193   0.166   0.084   0.071   0.073   0.084   0.143   0.145   0.154   0.156   0.175   0.168
 2022 212    92     218     128       4     146     216       7     178       0     160    0.00     0.0     0.0    0.00    0.00   0.166   0.186   0.160   0.084   0.071   0.072   0.083   0.142   0.144   0.154   0.156   0.175   0.168
 2022 213    93     215     125       4     146     216       7     178       0     160    0.00     0.0     0.0    0.00    0.00   0.147   0.177   0.152   0.083   0.070   0.072   0.082   0.142   0.144   0.154   0.156   0.175   0.168
 2022 214    94     214     124       4     146     217       7     178       0     160    0.00     0.0     0.0    0.00    0.00   0.159   0.169   0.144   0.083   0.070   0.072   0.081   0.141   0.143   0.154   0.156   0.175   0.168
 2022 215    95     211     121       4     146     217       7     178       0     160    0.00     0.0     0.0    0.00    0.00   0.142   0.161   0.137   0.083   0.070   0.071   0.080   0.141   0.143   0.153   0.156   0.175   0.168
 2022 216    96     209     119       4     146     217       7     178       0     160    0.00     0.0     0.0    0.00    0.00   0.126   0.154   0.130   0.082   0.070   0.071   0.080   0.140   0.143   0.153   0.156   0.175   0.168
 2022 217    97     206     117       4     146     217       7     178       0     160    0.00     0.0     0.0    0.00    0.00   0.113   0.146   0.123   0.082   0.070   0.071   0.079   0.139   0.142   0.153   0.156   0.175   0.168
 2022 218    98     205     115       4     146     217       7     178       0     160    0.00     0.0     0.0    0.00    0.00   0.104   0.140   0.117   0.082   0.070   0.071   0.079   0.139   0.142   0.153   0.156   0.175   0.168
 2022 219    99     205     115       4     146     218       7     178       0     160    0.00     0.0     0.0    0.00    0.00   0.112   0.137   0.115   0.082   0.070   0.071   0.079   0.139   0.142   0.153   0.156   0.175   0.168
 2022 220   100     203     113       4     146     218       7     178       0     160    0.00     0.0     0.0    0.00    0.00   0.104   0.130   0.110   0.081   0.069   0.070   0.078   0.138   0.141   0.153   0.156   0.175   0.168
 2022 221   101     201     111       4     146     218       7     178       0     160    0.00     0.0     0.0    0.00    0.00   0.096   0.122   0.106   0.081   0.069   0.070   0.077   0.137   0.141   0.153   0.156   0.175   0.168
 2022 222   102     199     109       4     146     218       7     178       0     160    0.00     0.0     0.0    0.00    0.00   0.089   0.113   0.103   0.081   0.069   0.070   0.077   0.136   0.140   0.153   0.156   0.175   0.168
 2022 223   103     197     107       4     146     218       7     178       0     160    0.00     0.0     0.0    0.00    0.00   0.084   0.107   0.100   0.080   0.069   0.069   0.076   0.135   0.140   0.152   0.156   0.175   0.168
 2022 224   104     195     106       4     146     218       7     178       0     160    0.00     0.0     0.0    0.00    0.00   0.078   0.102   0.097   0.079   0.069   0.069   0.075   0.133   0.139   0.152   0.155   0.175   0.168
 2022 225   105     194     104       4     146     218       7     178       0     160    0.00     0.0     0.0    0.00    0.00   0.074   0.099   0.095   0.079   0.068   0.068   0.074   0.132   0.137   0.152   0.155   0.175   0.168
 2022 226   106     193     103       4     146     218       7     178       0     160    0.00     0.0     0.0    0.00    0.00   0.069   0.096   0.093   0.078   0.068   0.067   0.073   0.130   0.136   0.151   0.155   0.175   0.168
 2022 227   107     203     113       4     146     230       7     178       0     160    0.00     0.0     0.0    0.00    0.00   0.253   0.113   0.092   0.078   0.068   0.067   0.072   0.128   0.135   0.151   0.154   0.175   0.168
 2022 228   108     201     111       4     146     230       7     178       0     160    0.00     0.0     0.0    0.00    0.00   0.226   0.121   0.091   0.077   0.067   0.067   0.072   0.128   0.135   0.150   0.154   0.175   0.168
 2022 229   109     198     108       4     146     230       7     178       0     160    0.00     0.0     0.0    0.00    0.00   0.193   0.120   0.089   0.076   0.066   0.066   0.071   0.126   0.133   0.149   0.153   0.174   0.167
 2022 230   110     196     106       4     146     230       7     178       0     160    0.00     0.0     0.0    0.00    0.00   0.174   0.114   0.088   0.076   0.066   0.066   0.071   0.126   0.133   0.149   0.153   0.174   0.167
 2022 231   111     195     105       4     146     230       7     178       0     160    0.00     0.0     0.0    0.00    0.00   0.156   0.110   0.088   0.076   0.066   0.066   0.071   0.125   0.133   0.149   0.153   0.174   0.167
 2022 232   112     193     103       4     146     230       7     178       0     160    0.00     0.0     0.0    0.00    0.00   0.138   0.107   0.087   0.076   0.066   0.065   0.071   0.124   0.132   0.149   0.153   0.174   0.167
 2022 233   113     192     102       4     146     230       7     178       0     160    0.00     0.0     0.0    0.00    0.00   0.121   0.105   0.087   0.075   0.066   0.065   0.070   0.123   0.132   0.149   0.152   0.174   0.167
 2022 234   114     190     100       4     146     230       7     178       0     160    0.00     0.0     0.0    0.00    0.00   0.109   0.102   0.086   0.075   0.066   0.065   0.070   0.122   0.131   0.148   0.152   0.174   0.167
 2022 235   115     189      99       4     146     230       7     178       0     160    0.00     0.0     0.0    0.00    0.00   0.100   0.100   0.086   0.075   0.066   0.065   0.069   0.121   0.130   0.148   0.152   0.174   0.167
 2022 236   116     188      98       4     146     230       7     178       0     160    0.00     0.0     0.0    0.00    0.00   0.093   0.098   0.085   0.075   0.066   0.064   0.069   0.120   0.129   0.148   0.151   0.173   0.167
 2022 237   117     186      97       4     146     230       7     178       0     160    0.00     0.0     0.0    0.00    0.00   0.086   0.096   0.085   0.074   0.065   0.064   0.069   0.118   0.128   0.147   0.151   0.173   0.167
 2022 238   118     186      96       4     146     230       7     178       0     160    0.00     0.0     0.0    0.00    0.00   0.081   0.095   0.084   0.074   0.065   0.064   0.068   0.117   0.128   0.147   0.151   0.173   0.167
 2022 239   119     185      95       4     146     230       7     178       0     160    0.00     0.0     0.0    0.00    0.00   0.076   0.094   0.084   0.074   0.065   0.064   0.068   0.116   0.126   0.147   0.150   0.173   0.167
 2022 240   120     183      94       4     146     230       7     178       0     160    0.00     0.0     0.0    0.00    0.00   0.071   0.092   0.083   0.073   0.065   0.063   0.068   0.114   0.125   0.146   0.150   0.173   0.167
 2022 241   121     182      93       4     146     230       7     178       0     160    0.00     0.0     0.0    0.00    0.00   0.067   0.091   0.082   0.073   0.065   0.063   0.067   0.112   0.124   0.146   0.150   0.173   0.167
 2022 242   122     181      92       4     146     230       7     178       0     160    0.00     0.0     0.0    0.00    0.00   0.063   0.090   0.082   0.073   0.064   0.063   0.067   0.111   0.123   0.145   0.149   0.173   0.167
 2022 243   123     182      92       4     146     232       7     178       0     160    0.00     0.0     0.0    0.00    0.00   0.089   0.089   0.082   0.073   0.064   0.063   0.067   0.110   0.123   0.145   0.149   0.173   0.167