*Soil Inorganic Nitrogen daily output file

*DSSAT Cropping System Model Ver. 4.8.2.000 -release  NOV 03, 2024 05:23:59

*RUN   1        : silt_loam_13in_irr        MZCER048 UNLI2201    1
 MODEL          : MZCER048 - Maize
 EXPERIMENT     : UNLI2201 MZ IRRIGATED MAIZE PRODUCTION
 DATA PATH      :
 TREATMENT  1   : silt_loam_13in_irr        MZCER048
  
!                                                                                                                                      NO3 (ppm) at soil dep. (cm):                                                    NH4 (ppm) at soil dep. (cm):                                                    Total Inorganic N @dep(ppm):
!                                                                                                                                       0-5    5-15   15-23   23-38   38-53   53-61   61-69   69-84   84-99  99-160     0-5    5-15   15-23   23-38   38-53   53-61   61-69   69-84   84-99  99-160     0-5    5-15   15-23   23-38   38-53   53-61   61-69   69-84   84-99  99-160
@YEAR DOY   DAS  NAPC  NI#M    NIAD    NITD    NHTD   NURTD    NMNC    NITC    NDNC    NIMC    AMLC   NNMNC    NUCM    NLCC    TDNC    NI1D    NI2D    NI3D    NI4D    NI5D    NI6D    NI7D    NI8D    NI9D    NI10    NH1D    NH2D    NH3D    NH4D    NH5D    NH6D    NH7D    NH8D    NH9D    NH10    NT1D    NT2D    NT3D    NT4D    NT5D    NT6D    NT7D    NT8D    NT9D    NT10    
 2022 120     0     0     0     0.0     0.0     0.0     0.0    0.00    0.00    0.00    0.00    0.00    0.00    0.00    0.00    0.00    0.00     0.0     0.0    0.00    0.00    0.00    0.00    0.00    0.00    0.00    0.00    0.00    0.00    0.00    0.00    0.00    0.00    0.00    0.00    0.00    0.00    0.00    0.00    0.00    0.00    0.00    0.00    0.00    0.00    0.00
 2022 121     1     0     0     0.1     0.0     0.1     0.0    0.12    0.00    0.00    0.00    0.00    0.12    0.00    0.00    0.00    0.00     0.0     0.0    0.00    0.00    0.00    0.00    0.00    0.00    0.00    0.02    0.02    0.01    0.01    0.01    0.01    0.01    0.01    0.00    0.00    0.02    0.02    0.01    0.01    0.01    0.01    0.01    0.01    0.00    0.00
 2022 122     2     0     0     0.2     0.0     0.2     0.0    0.23    0.01    0.00    0.00    0.00    0.23    0.00    0.00    0.00    0.00     0.0     0.0    0.00    0.00    0.00    0.00    0.00    0.00    0.00    0.04    0.03    0.02    0.02    0.01    0.01    0.01    0.01    0.01    0.00    0.05    0.03    0.03    0.02    0.01    0.01    0.01    0.01    0.01    0.00
 2022 123     3     0     0     0.3     0.0     0.3     0.0    0.31    0.04    0.00    0.00    0.00    0.31    0.00    0.00    0.00    0.01     0.0     0.0    0.00    0.00    0.00    0.00    0.00    0.00    0.00    0.06    0.04    0.03    0.02    0.02    0.01    0.01    0.01    0.01    0.00    0.06    0.04    0.03    0.02    0.02    0.02    0.01    0.01    0.01    0.01
 2022 124     4     0     0     0.4     0.1     0.3     0.0    0.36    0.06    0.00    0.00    0.00    0.36    0.00    0.00    0.00    0.01     0.0     0.0    0.00    0.00    0.00    0.00    0.00    0.00    0.00    0.07    0.05    0.03    0.02    0.02    0.01    0.01    0.01    0.01    0.00    0.08    0.05    0.04    0.03    0.02    0.02    0.02    0.02    0.01    0.01
 2022 125     5     0     0     0.4     0.1     0.3     0.0    0.39    0.09    0.00    0.00    0.00    0.39    0.00    0.00    0.00    0.02     0.0     0.0    0.01    0.01    0.01    0.00    0.00    0.00    0.00    0.07    0.05    0.04    0.02    0.02    0.01    0.01    0.01    0.01    0.00    0.08    0.06    0.05    0.03    0.02    0.02    0.02    0.02    0.01    0.01
 2022 126     6     0     0     0.4     0.1     0.3     0.0    0.41    0.12    0.00    0.00    0.00    0.41    0.00    0.00    0.00    0.02     0.0     0.0    0.01    0.01    0.01    0.01    0.01    0.00    0.00    0.07    0.05    0.04    0.02    0.02    0.01    0.01    0.01    0.01    0.00    0.09    0.06    0.05    0.03    0.02    0.02    0.02    0.02    0.01    0.01
 2022 127     7     0     0     0.5     0.1     0.3     0.0    0.46    0.15    0.00    0.00    0.00    0.46    0.00    0.00    0.00    0.03     0.0     0.0    0.01    0.01    0.01    0.01    0.01    0.00    0.00    0.08    0.05    0.04    0.03    0.02    0.01    0.01    0.01    0.01    0.00    0.11    0.07    0.06    0.04    0.03    0.02    0.02    0.02    0.01    0.01
 2022 128     8     0     0     0.6     0.2     0.4     0.0    0.60    0.19    0.00    0.00    0.00    0.60    0.00    0.00    0.00    0.04     0.0     0.0    0.01    0.01    0.01    0.01    0.01    0.01    0.00    0.10    0.06    0.05    0.03    0.02    0.02    0.02    0.02    0.01    0.01    0.13    0.09    0.07    0.05    0.03    0.03    0.02    0.02    0.02    0.01
 2022 129     9     0     0     0.8     0.2     0.6     0.0    0.82    0.25    0.00    0.00    0.00    0.82    0.00    0.00    0.00    0.06     0.0     0.0    0.02    0.01    0.01    0.01    0.01    0.01    0.00    0.12    0.08    0.06    0.04    0.03    0.03    0.02    0.02    0.02    0.01    0.18    0.11    0.09    0.06    0.04    0.04    0.04    0.04    0.03    0.01
 2022 130    10     0     0     1.1     0.3     0.8     0.0    1.11    0.35    0.00    0.00    0.00    1.11    0.00    0.00    0.00    0.10     0.0     0.0    0.03    0.02    0.02    0.01    0.01    0.01    0.01    0.14    0.10    0.08    0.06    0.04    0.04    0.03    0.04    0.03    0.02    0.24    0.14    0.12    0.08    0.06    0.05    0.05    0.05    0.04    0.02
 2022 131    11     0     0     1.4     0.5     1.0     0.0    1.44    0.49    0.00    0.00    0.00    1.44    0.00    0.00    0.00    0.14     0.1     0.0    0.04    0.03    0.02    0.02    0.02    0.01    0.01    0.16    0.12    0.09    0.07    0.05    0.05    0.05    0.05    0.04    0.02    0.31    0.18    0.14    0.11    0.08    0.07    0.06    0.07    0.05    0.03
 2022 132    12     0     0     1.8     0.7     1.1     0.0    1.82    0.68    0.00    0.00    0.00    1.82    0.00    0.00    0.00    0.18     0.1     0.1    0.05    0.04    0.03    0.03    0.03    0.02    0.01    0.19    0.13    0.11    0.08    0.06    0.06    0.06    0.06    0.05    0.03    0.37    0.22    0.18    0.13    0.10    0.09    0.08    0.09    0.07    0.04
 2022 133    13     0     0     2.2     0.9     1.3     0.0    2.23    0.92    0.00    0.00    0.00    2.23    0.00    0.00    0.00    0.22     0.1     0.1    0.07    0.05    0.04    0.04    0.04    0.03    0.02    0.21    0.15    0.12    0.09    0.07    0.07    0.06    0.07    0.06    0.03    0.43    0.26    0.21    0.16    0.12    0.11    0.10    0.11    0.08    0.05
 2022 134    14     0     0     2.6     1.2     1.4     0.0    2.61    1.18    0.00    0.00    0.00    2.61    0.00    0.00    0.00    0.26     0.1     0.1    0.08    0.06    0.06    0.05    0.06    0.04    0.02    0.23    0.16    0.13    0.10    0.07    0.07    0.07    0.07    0.06    0.04    0.49    0.31    0.25    0.18    0.14    0.13    0.12    0.13    0.10    0.06
 2022 135    15     0     0     3.0     1.4     1.5     0.0    2.99    1.45    0.00    0.00    0.00    2.99    0.00    0.00    0.00    0.30     0.2     0.1    0.10    0.08    0.07    0.06    0.07    0.05    0.03    0.25    0.16    0.14    0.11    0.08    0.08    0.08    0.08    0.07    0.04    0.55    0.35    0.28    0.21    0.16    0.15    0.14    0.15    0.12    0.07
 2022 136    16     0     0     3.4     1.7     1.6     0.0    3.37    1.75    0.00    0.00    0.00    3.37    0.00    0.00    0.00    0.35     0.2     0.2    0.12    0.09    0.09    0.08    0.09    0.06    0.04    0.26    0.17    0.14    0.11    0.08    0.08    0.08    0.08    0.07    0.05    0.61    0.39    0.32    0.23    0.18    0.17    0.16    0.17    0.13    0.08
 2022 137    17     0     0     3.7     2.0     1.7     0.0    3.73    2.05    0.00    0.00    0.00    3.73    0.00    0.00    0.00    0.40     0.3     0.2    0.14    0.11    0.10    0.09    0.10    0.08    0.05    0.27    0.17    0.15    0.11    0.08    0.09    0.09    0.09    0.07    0.05    0.67    0.43    0.35    0.26    0.19    0.19    0.18    0.19    0.15    0.09
 2022 138    18     0     0     4.1     2.3     1.7     0.0    4.08    2.36    0.00    0.00    0.00    4.08    0.00    0.00    0.00    0.45     0.3     0.2    0.17    0.13    0.12    0.11    0.12    0.09    0.05    0.28    0.18    0.15    0.12    0.09    0.09    0.09    0.09    0.08    0.05    0.73    0.47    0.38    0.28    0.21    0.21    0.19    0.21    0.16    0.10
 2022 139    19     0     0     4.5     2.7     1.8     0.0    4.47    2.70    0.00    0.00    0.00    4.47    0.00    0.00    0.00    0.50     0.3     0.3    0.19    0.14    0.13    0.12    0.14    0.10    0.06    0.30    0.18    0.15    0.12    0.09    0.09    0.09    0.09    0.08    0.05    0.80    0.51    0.41    0.31    0.23    0.23    0.21    0.23    0.18    0.11
 2022 140    20     0     0     4.9     3.0     1.8     0.0    4.89    3.06    0.00    0.00    0.00    4.89    0.00    0.00    0.00    0.55     0.4     0.3    0.21    0.16    0.15    0.14    0.16    0.12    0.07    0.32    0.18    0.16    0.12    0.09    0.10    0.09    0.09    0.08    0.05    0.87    0.55    0.45    0.34    0.25    0.25    0.23    0.25    0.20    0.12
 2022 141    21     0     0     5.2     3.4     1.9     0.0    5.27    3.40    0.00    0.00    0.00    5.27    0.00    0.00    0.00    0.59     0.4     0.3    0.24    0.18    0.17    0.16    0.17    0.13    0.08    0.34    0.18    0.16    0.12    0.09    0.10    0.10    0.10    0.08    0.05    0.93    0.59    0.49    0.36    0.27    0.27    0.25    0.27    0.22    0.13
 2022 142    22     0     0     5.5     3.7     1.9     0.0    5.57    3.70    0.00    0.00    0.00    5.57    0.00    0.00    0.00    0.63     0.4     0.4    0.26    0.20    0.19    0.17    0.19    0.15    0.09    0.35    0.18    0.16    0.12    0.09    0.10    0.10    0.10    0.08    0.05    0.98    0.62    0.51    0.38    0.29    0.28    0.27    0.29    0.23    0.14
 2022 143    23     0     0     5.7     3.9     1.8     0.0    5.78    3.94    0.00    0.00    0.00    5.78    0.00    0.00    0.00    0.14     0.5     0.5    0.32    0.22    0.20    0.18    0.20    0.16    0.10    0.36    0.18    0.15    0.12    0.09    0.09    0.09    0.09    0.08    0.05    0.50    0.67    0.67    0.44    0.30    0.29    0.28    0.30    0.24    0.15
 2022 144    24     0     0     5.9     4.1     1.8     0.0    5.91    4.15    0.00    0.00    0.00    5.91    0.00    0.00    0.00    0.11     0.3     0.5    0.42    0.27    0.23    0.20    0.22    0.17    0.10    0.36    0.18    0.15    0.12    0.09    0.09    0.09    0.09    0.08    0.05    0.47    0.52    0.66    0.54    0.36    0.33    0.29    0.30    0.24    0.15
 2022 145    25     0     0     6.0     4.3     1.7     0.0    5.99    4.32    0.00    0.00    0.00    5.99    0.00    0.00    0.00    0.10     0.2     0.4    0.45    0.35    0.33    0.26    0.24    0.17    0.11    0.35    0.18    0.15    0.11    0.08    0.08    0.08    0.08    0.07    0.04    0.45    0.41    0.53    0.57    0.43    0.41    0.34    0.32    0.24    0.15
 2022 146    26     0     0     6.1     4.5     1.6     0.0    6.09    4.49    0.00    0.00    0.00    6.09    0.00    0.00    0.00    0.13     0.2     0.3    0.44    0.39    0.41    0.33    0.27    0.19    0.11    0.34    0.18    0.15    0.11    0.08    0.08    0.08    0.08    0.06    0.04    0.47    0.36    0.45    0.55    0.47    0.49    0.41    0.35    0.25    0.15
 2022 147    27     0     0     6.2     4.6     1.6     0.0    6.25    4.67    0.00    0.00    0.00    6.25    0.00    0.00    0.00    0.14     0.2     0.2    0.41    0.40    0.48    0.41    0.32    0.21    0.12    0.33    0.18    0.15    0.11    0.08    0.08    0.07    0.07    0.06    0.04    0.47    0.33    0.40    0.52    0.48    0.55    0.48    0.39    0.28    0.16
 2022 148    28     0     0     6.5     4.8     1.6     0.0    6.50    4.87    0.00    0.00    0.00    6.50    0.00    0.00    0.00    0.15     0.1     0.2    0.37    0.40    0.52    0.47    0.37    0.25    0.14    0.33    0.19    0.16    0.12    0.08    0.08    0.07    0.08    0.06    0.04    0.48    0.33    0.38    0.48    0.48    0.59    0.55    0.45    0.31    0.18
 2022 149    29     0     0     6.8     5.1     1.7     0.0    6.82    5.11    0.01    0.00    0.00    6.82    0.00    0.00    0.00    0.15     0.1     0.2    0.33    0.39    0.50    0.51    0.44    0.30    0.18    0.33    0.20    0.17    0.12    0.08    0.08    0.08    0.08    0.07    0.04    0.48    0.34    0.37    0.46    0.47    0.58    0.59    0.52    0.37    0.22
 2022 150    30     0     0     7.2     5.3     1.8     0.0    7.22    5.40    0.03    0.00    0.00    7.22    0.00    0.00    0.00    0.21     0.2     0.2    0.31    0.37    0.47    0.51    0.47    0.36    0.23    0.33    0.21    0.18    0.13    0.09    0.09    0.08    0.08    0.07    0.05    0.54    0.37    0.39    0.44    0.45    0.56    0.59    0.56    0.44    0.27
 2022 151    31     0     0     7.4     5.5     1.9     0.0    7.64    5.73    0.04    0.00    0.00    7.64    0.00    0.13    0.00    0.26     0.2     0.2    0.27    0.30    0.39    0.48    0.33    0.43    0.37    0.33    0.21    0.19    0.14    0.09    0.09    0.09    0.09    0.08    0.05    0.60    0.39    0.39    0.41    0.40    0.48    0.57    0.42    0.51    0.42
 2022 152    32     0     0     7.6     5.7     1.9     0.0    8.04    6.14    0.04    0.00    0.00    8.04    0.01    0.32    0.00    0.34     0.2     0.2    0.26    0.27    0.33    0.37    0.34    0.36    0.34    0.31    0.21    0.18    0.14    0.09    0.09    0.09    0.09    0.08    0.05    0.65    0.42    0.41    0.40    0.37    0.42    0.46    0.43    0.44    0.39
 2022 153    33     0     0     7.7     5.8     1.9     0.0    8.41    6.51    0.05    0.00    0.00    8.41    0.08    0.56    0.00    0.37     0.2     0.2    0.26    0.26    0.30    0.33    0.34    0.34    0.33    0.30    0.20    0.18    0.13    0.09    0.09    0.09    0.09    0.08    0.05    0.67    0.44    0.42    0.39    0.36    0.39    0.42    0.43    0.42    0.38
 2022 154    34     0     0     7.8     5.9     1.9     0.0    8.73    6.85    0.05    0.00    0.00    8.73    0.17    0.68    0.00    0.40     0.3     0.3    0.26    0.26    0.29    0.31    0.34    0.33    0.33    0.29    0.20    0.18    0.13    0.09    0.09    0.09    0.09    0.08    0.05    0.69    0.47    0.44    0.40    0.35    0.38    0.40    0.44    0.41    0.38
 2022 155    35     0     0     7.9     6.0     1.9     0.0    9.03    7.17    0.05    0.00    0.00    9.03    0.31    0.74    0.00    0.41     0.3     0.3    0.27    0.26    0.29    0.30    0.35    0.34    0.33    0.28    0.20    0.17    0.13    0.09    0.09    0.09    0.09    0.08    0.05    0.69    0.47    0.44    0.40    0.36    0.38    0.39    0.44    0.42    0.38
 2022 156    36     0     0     8.0     6.2     1.9     0.0    9.36    7.51    0.05    0.00    0.00    9.36    0.49    0.75    0.00    0.41     0.3     0.3    0.27    0.28    0.30    0.31    0.36    0.35    0.34    0.28    0.20    0.17    0.13    0.09    0.09    0.09    0.09    0.08    0.05    0.69    0.47    0.45    0.40    0.37    0.39    0.40    0.46    0.43    0.39
 2022 157    37     0     0     8.2     6.3     1.9     0.0    9.74    7.87    0.05    0.00    0.00    9.74    0.69    0.75    0.00    0.40     0.3     0.3    0.28    0.29    0.31    0.32    0.38    0.36    0.35    0.28    0.19    0.17    0.13    0.09    0.09    0.09    0.10    0.08    0.05    0.68    0.48    0.45    0.41    0.39    0.40    0.41    0.48    0.44    0.40
 2022 158    38     0     0     8.4     6.5     1.9     0.0   10.16    8.27    0.05    0.00    0.00   10.16    0.90    0.75    0.00    0.34     0.3     0.3    0.28    0.31    0.33    0.34    0.40    0.37    0.35    0.28    0.19    0.17    0.13    0.09    0.09    0.09    0.10    0.08    0.06    0.61    0.51    0.45    0.41    0.40    0.42    0.43    0.50    0.46    0.41
 2022 159    39     0     0     8.6     6.7     1.9     0.0   10.61    8.70    0.05    0.00    0.00   10.61    1.14    0.75    0.00    0.33     0.3     0.3    0.28    0.33    0.35    0.36    0.42    0.39    0.36    0.27    0.19    0.17    0.13    0.10    0.09    0.09    0.10    0.09    0.06    0.60    0.49    0.47    0.41    0.43    0.44    0.45    0.52    0.47    0.42
 2022 160    40     0     0     8.9     6.9     1.9     0.0   11.06    9.14    0.05    0.00    0.00   11.06    1.36    0.75    0.00    0.42     0.3     0.3    0.28    0.35    0.37    0.37    0.44    0.40    0.37    0.26    0.19    0.17    0.13    0.10    0.10    0.09    0.10    0.09    0.06    0.68    0.49    0.45    0.41    0.45    0.46    0.47    0.54    0.49    0.43
 2022 161    41     0     0     9.0     7.1     1.9     0.0   11.52    9.58    0.05    0.00    0.00   11.52    1.62    0.75    0.00    0.40     0.3     0.3    0.28    0.37    0.38    0.39    0.46    0.42    0.38    0.26    0.19    0.17    0.13    0.10    0.10    0.10    0.10    0.09    0.06    0.66    0.48    0.45    0.41    0.47    0.48    0.48    0.56    0.51    0.44
 2022 162    42     0     0     9.3     7.3     2.0     0.0   11.98   10.02    0.05    0.00    0.00   11.98    1.87    0.75    0.00    0.32     0.3     0.3    0.28    0.39    0.41    0.41    0.48    0.44    0.39    0.26    0.19    0.16    0.13    0.10    0.10    0.10    0.10    0.09    0.06    0.58    0.49    0.45    0.41    0.49    0.51    0.51    0.59    0.53    0.45
 2022 163    43     0     0     9.5     7.5     2.0     0.0   12.47   10.50    0.05    0.00    0.00   12.47    2.09    0.75    0.00    0.32     0.3     0.3    0.28    0.41    0.43    0.43    0.51    0.46    0.41    0.26    0.19    0.16    0.13    0.10    0.10    0.10    0.11    0.09    0.06    0.58    0.49    0.46    0.41    0.51    0.53    0.53    0.61    0.55    0.47
 2022 164    44     0     0     9.8     7.8     2.0     0.0   13.01   11.03    0.05    0.00    0.00   13.01    2.35    0.75    0.00    0.32     0.3     0.3    0.29    0.42    0.46    0.46    0.54    0.48    0.42    0.26    0.19    0.16    0.13    0.10    0.10    0.10    0.11    0.10    0.06    0.58    0.50    0.46    0.42    0.52    0.56    0.56    0.64    0.57    0.48
 2022 165    45     0     0    10.1     8.1     2.0     0.0   13.63   11.65    0.05    0.00    0.00   13.63    2.66    0.75    0.00    0.33     0.3     0.3    0.29    0.41    0.49    0.49    0.57    0.51    0.44    0.25    0.18    0.16    0.13    0.10    0.11    0.10    0.11    0.10    0.06    0.58    0.50    0.47    0.42    0.51    0.59    0.59    0.68    0.60    0.50
 2022 166    46     0     0    10.3     8.4     2.0     0.0   14.26   12.28    0.05    0.00    0.00   14.26    3.05    0.75    0.00    0.32     0.3     0.3    0.29    0.40    0.52    0.52    0.61    0.53    0.46    0.25    0.18    0.15    0.13    0.10    0.11    0.10    0.11    0.10    0.07    0.57    0.49    0.46    0.42    0.49    0.63    0.62    0.72    0.63    0.52
 2022 167    47     0     0    10.6     8.6     2.0     0.0   14.89   12.91    0.05    0.00    0.00   14.89    3.45    0.75    0.00    0.31     0.3     0.3    0.29    0.37    0.56    0.55    0.64    0.56    0.48    0.24    0.17    0.15    0.13    0.10    0.11    0.10    0.11    0.10    0.07    0.56    0.49    0.45    0.42    0.46    0.66    0.66    0.75    0.66    0.54
 2022 168    48     0     0    10.8     8.8     2.0     0.0   15.48   13.50    0.05    0.00    0.00   15.48    3.85    0.75    0.00    0.32     0.3     0.3    0.29    0.33    0.59    0.58    0.68    0.59    0.49    0.24    0.17    0.15    0.13    0.10    0.11    0.11    0.11    0.10    0.07    0.56    0.48    0.45    0.42    0.42    0.69    0.69    0.79    0.69    0.56
 2022 169    49     0     0    11.0     9.0     2.0     0.0   16.08   14.10    0.05    0.00    0.00   16.08    4.22    0.75    0.00    0.34     0.3     0.3    0.29    0.29    0.61    0.61    0.71    0.62    0.51    0.24    0.17    0.15    0.13    0.10    0.11    0.11    0.11    0.10    0.07    0.58    0.47    0.44    0.42    0.39    0.72    0.72    0.82    0.72    0.58
 2022 170    50     0     0    11.2     9.3     2.0     0.0   16.66   14.68    0.05    0.00    0.00   16.66    4.54    0.75    0.00    0.37     0.3     0.3    0.29    0.28    0.62    0.65    0.75    0.65    0.53    0.24    0.17    0.15    0.13    0.10    0.11    0.11    0.11    0.10    0.07    0.61    0.46    0.44    0.42    0.38    0.73    0.75    0.86    0.75    0.60
 2022 171    51     0     0    11.5     9.6     2.0     0.0   17.27   15.29    0.05    0.00    0.00   17.27    4.84    0.75    0.00    0.42     0.3     0.3    0.29    0.29    0.61    0.68    0.79    0.68    0.55    0.24    0.16    0.14    0.13    0.10    0.11    0.11    0.11    0.10    0.07    0.66    0.46    0.44    0.42    0.38    0.71    0.79    0.90    0.78    0.62
 2022 172    52     0     0    11.8     9.9     2.0     0.0   17.90   15.95    0.05    0.00    0.00   17.90    5.18    0.75    0.00    0.47     0.3     0.3    0.30    0.29    0.58    0.72    0.83    0.72    0.57    0.23    0.16    0.14    0.12    0.10    0.11    0.10    0.11    0.10    0.07    0.71    0.45    0.43    0.42    0.39    0.68    0.82    0.94    0.82    0.64
 2022 173    53     0     0    12.1    10.1     1.9     0.0   18.52   16.58    0.05    0.00    0.00   18.52    5.55    0.75    0.00    0.52     0.3     0.3    0.29    0.29    0.54    0.74    0.87    0.75    0.60    0.23    0.15    0.14    0.12    0.10    0.10    0.10    0.11    0.10    0.07    0.75    0.45    0.43    0.42    0.38    0.64    0.84    0.98    0.85    0.66
 2022 174    54     0     0    12.3    10.3     1.9     0.0   19.08   17.13    0.05    0.00    0.00   19.08    5.92    0.75    0.00    0.55     0.3     0.3    0.29    0.28    0.49    0.74    0.91    0.78    0.62    0.23    0.15    0.14    0.12    0.10    0.11    0.10    0.11    0.10    0.07    0.79    0.44    0.42    0.41    0.38    0.60    0.85    1.02    0.88    0.68
 2022 175    55     0     0    12.4    10.5     2.0     0.0   19.60   17.65    0.05    0.00    0.00   19.60    6.27    0.75    0.00    0.59     0.3     0.3    0.29    0.28    0.45    0.72    0.94    0.81    0.64    0.23    0.15    0.13    0.13    0.10    0.11    0.11    0.11    0.10    0.07    0.82    0.43    0.41    0.41    0.38    0.56    0.82    1.05    0.91    0.70
 2022 176    56     0     0    12.6    10.6     2.0     0.0   20.10   18.14    0.05    0.00    0.00   20.10    6.62    0.75    0.00    0.62     0.3     0.3    0.28    0.28    0.41    0.67    0.98    0.84    0.65    0.23    0.15    0.13    0.13    0.10    0.11    0.11    0.11    0.10    0.07    0.85    0.43    0.41    0.41    0.38    0.52    0.77    1.09    0.94    0.72
 2022 177    57     0     0    12.7    10.7     2.0     0.0   20.54   18.57    0.05    0.00    0.00   20.54    6.96    0.75    0.00    0.64     0.3     0.3    0.28    0.28    0.37    0.61    1.00    0.86    0.67    0.24    0.15    0.13    0.13    0.11    0.11    0.11    0.11    0.10    0.07    0.88    0.42    0.41    0.41    0.38    0.48    0.71    1.11    0.97    0.74
 2022 178    58     0     0    12.7    10.8     2.0     0.0   20.95   18.98    0.05    0.00    0.00   20.95    7.29    0.75    0.00    0.67     0.3     0.3    0.28    0.27    0.33    0.55    1.02    0.89    0.69    0.24    0.15    0.13    0.13    0.11    0.11    0.11    0.11    0.10    0.07    0.91    0.42    0.40    0.40    0.38    0.44    0.65    1.13    0.99    0.75
 2022 179    59     0     0    12.8    10.9     2.0     0.0   21.37   19.39    0.05    0.00    0.00   21.37    7.61    0.75    0.00    0.69     0.3     0.3    0.27    0.28    0.30    0.49    1.04    0.91    0.70    0.24    0.15    0.13    0.13    0.11    0.11    0.11    0.11    0.10    0.07    0.93    0.42    0.40    0.40    0.39    0.41    0.60    1.14    1.01    0.77
 2022 180    60     0     0    12.9    10.9     2.0     0.0   21.77   19.78    0.05    0.00    0.00   21.77    7.94    0.75    0.00    0.71     0.3     0.3    0.27    0.27    0.28    0.43    1.03    0.94    0.72    0.24    0.15    0.13    0.13    0.11    0.11    0.11    0.11    0.10    0.07    0.95    0.42    0.40    0.40    0.39    0.39    0.54    1.14    1.04    0.78
 2022 181    61     0     0    13.0    11.0     2.0     0.0   22.18   20.18    0.05    0.00    0.00   22.18    8.26    0.75    0.00    0.73     0.3     0.3    0.27    0.27    0.28    0.39    1.01    0.96    0.73    0.24    0.15    0.13    0.13    0.11    0.11    0.11    0.11    0.10    0.07    0.98    0.42    0.40    0.40    0.39    0.39    0.50    1.12    1.06    0.80
 2022 182    62     0     0    13.1    11.1     2.0     0.0   22.61   20.62    0.05    0.00    0.00   22.61    8.60    0.75    0.00    0.76     0.3     0.3    0.27    0.28    0.28    0.35    0.99    0.99    0.75    0.25    0.15    0.13    0.13    0.11    0.12    0.11    0.11    0.10    0.07    1.00    0.42    0.40    0.40    0.39    0.40    0.46    1.10    1.09    0.82
 2022 183    63     0     0    13.2    11.2     2.0     0.0   23.08   21.09    0.05    0.00    0.00   23.08    8.95    0.75    0.00    0.18     0.5     0.3    0.27    0.28    0.28    0.32    0.96    1.02    0.77    0.25    0.15    0.13    0.13    0.11    0.12    0.11    0.11    0.10    0.07    0.43    0.68    0.40    0.40    0.39    0.40    0.43    1.07    1.12    0.84
 2022 184    64     0     0    13.0    11.0     2.0     0.0   23.63   21.62    0.05    0.00    0.00   23.63    9.65    0.75    0.00    0.27     0.3     0.3    0.26    0.27    0.28    0.33    0.92    1.03    0.78    0.26    0.15    0.13    0.13    0.11    0.12    0.11    0.11    0.10    0.07    0.54    0.47    0.42    0.39    0.38    0.40    0.45    1.03    1.13    0.85
 2022 185    65     0     0    13.2    11.1     2.0     0.0   24.21   22.19    0.05    0.00    0.00   24.21   10.09    0.75    0.00    0.37     0.3     0.3    0.26    0.27    0.28    0.34    0.88    1.05    0.80    0.26    0.16    0.13    0.13    0.11    0.12    0.11    0.11    0.10    0.07    0.63    0.46    0.45    0.39    0.38    0.40    0.45    0.99    1.15    0.86
 2022 186    66     0     0    13.2    11.2     2.0     0.0   24.79   22.78    0.05    0.00    0.00   24.79   10.61    0.75    0.00    0.29     0.3     0.4    0.27    0.27    0.28    0.35    0.85    1.06    0.81    0.24    0.16    0.13    0.12    0.11    0.12    0.12    0.11    0.10    0.07    0.53    0.45    0.52    0.40    0.38    0.40    0.47    0.96    1.16    0.88
 2022 187    67     0     0    13.3    11.2     2.0     0.0   25.40   23.37    0.05    0.00    0.00   25.40   11.16    0.75    0.00    0.35     0.3     0.3    0.28    0.27    0.28    0.35    0.81    1.08    0.82    0.25    0.16    0.13    0.12    0.11    0.12    0.12    0.11    0.10    0.07    0.60    0.45    0.47    0.41    0.38    0.41    0.47    0.92    1.18    0.89
 2022 188    68     0     0    13.3    11.3     2.0     0.0   26.02   23.99    0.05    0.00    0.00   26.02   11.70    0.75    0.00    0.31     0.3     0.3    0.30    0.27    0.28    0.33    0.77    1.10    0.84    0.23    0.16    0.13    0.12    0.11    0.13    0.12    0.11    0.10    0.07    0.55    0.46    0.46    0.42    0.38    0.41    0.45    0.88    1.20    0.91
 2022 189    69     0     0    13.4    11.4     2.0     0.0   26.65   24.62    0.05    0.00    0.00   26.65   12.25    0.75    0.00    0.33     0.3     0.3    0.32    0.27    0.28    0.33    0.73    1.12    0.86    0.25    0.16    0.14    0.12    0.11    0.13    0.12    0.11    0.10    0.07    0.58    0.44    0.42    0.45    0.38    0.41    0.45    0.85    1.22    0.92
 2022 190    70     0     0    13.5    11.5     2.0     0.0   27.30   25.26    0.05    0.00    0.00   27.30   12.79    0.75    0.00    0.40     0.3     0.3    0.31    0.27    0.28    0.32    0.71    1.13    0.87    0.24    0.16    0.14    0.12    0.11    0.13    0.12    0.11    0.11    0.07    0.64    0.46    0.43    0.44    0.37    0.41    0.45    0.82    1.23    0.94
 2022 191    71     0     0    13.6    11.5     2.0     0.0   27.95   25.91    0.05    0.00    0.00   27.95   13.38    0.75    0.00    0.42     0.3     0.3    0.30    0.26    0.28    0.33    0.69    1.13    0.88    0.23    0.16    0.14    0.12    0.11    0.13    0.12    0.11    0.11    0.07    0.65    0.48    0.44    0.42    0.37    0.41    0.45    0.80    1.24    0.95
 2022 192    72     0     0    13.6    11.6     2.0     0.0   28.60   26.56    0.05    0.00    0.00   28.60   13.98    0.75    0.00    0.45     0.3     0.3    0.30    0.26    0.28    0.33    0.67    1.13    0.90    0.22    0.16    0.14    0.12    0.11    0.13    0.13    0.12    0.11    0.07    0.67    0.47    0.44    0.42    0.37    0.41    0.45    0.78    1.23    0.96
 2022 193    73     0     0    13.6    11.6     2.0     0.0   29.23   27.18    0.05    0.00    0.00   29.23   14.59    0.75    0.00    0.35     0.3     0.3    0.29    0.27    0.28    0.31    0.63    1.13    0.92    0.22    0.16    0.14    0.12    0.11    0.13    0.13    0.12    0.11    0.07    0.57    0.48    0.44    0.41    0.38    0.41    0.44    0.75    1.24    0.98
 2022 194    74     0     0    13.6    11.6     2.1     0.0   29.84   27.78    0.05    0.00    0.00   29.84   15.19    0.75    0.00    0.33     0.3     0.3    0.29    0.27    0.28    0.29    0.60    1.12    0.94    0.23    0.17    0.14    0.12    0.11    0.13    0.13    0.12    0.11    0.07    0.56    0.48    0.44    0.41    0.38    0.41    0.42    0.72    1.23    1.01
 2022 195    75     0     0    13.7    11.6     2.1     0.0   30.45   28.39    0.05    0.00    0.00   30.45   15.78    0.75    0.00    0.33     0.3     0.3    0.29    0.27    0.28    0.28    0.57    1.09    0.96    0.23    0.17    0.14    0.12    0.11    0.13    0.13    0.12    0.11    0.07    0.56    0.48    0.44    0.41    0.38    0.41    0.41    0.69    1.20    1.03