*N2O emissions output file

*DSSAT Cropping System Model Ver. 4.8.2.000 -release  NOV 03, 2024 05:23:59

*RUN   1        : silt_loam_13in_irr        MZCER048 UNLI2201    1
 MODEL          : MZCER048 - Maize
 EXPERIMENT     : UNLI2201 MZ IRRIGATED MAIZE PRODUCTION
 DATA PATH      :
 TREATMENT  1   : silt_loam_13in_irr        MZCER048
  
!              |------------------------------ Cumulative -----------------------------|------------------------------ Daily ----------------------------------|
!               N2Oemit  N2emit  NOemit   Denit  Nitrif   N2O-denit+nit      N2      NO N2Oemit  N2emit  NOemit   Denit  Nitrif   N2O-denit+nit      N2      NO   Denitrification (g[N]/ha) by soil depth (cm):                                   Nitrification (g[N]/ha) by soil depth (cm):                                     N2O flux (g[N]/ha) by soil depth (cm):                                          N2 flux (g[N]/ha) by soil depth (cm):                                           NO flux (g[N]/ha) by soil depth (cm):
!                 kg/ha   kg/ha   kg/ha   kg/ha   kg/ha   kg/ha   kg/ha   kg/ha   kg/ha    g/ha    g/ha    g/ha    g/ha    g/ha    g/ha    g/ha    g/ha    g/ha     0-5    5-15   15-23   23-38   38-53   53-61   61-69   69-84   84-99  99-160     0-5    5-15   15-23   23-38   38-53   53-61   61-69   69-84   84-99  99-160     0-5    5-15   15-23   23-38   38-53   53-61   61-69   69-84   84-99  99-160     0-5    5-15   15-23   23-38   38-53   53-61   61-69   69-84   84-99  99-160     0-5    5-15   15-23   23-38   38-53   53-61   61-69   69-84   84-99  99-160
@YEAR DOY   DAS   N2OEC    N2EC    NOEC    NDNC    NITC   N2ODC   N2ONC   N2FLC   NOFLC  N2OGED   N2GED   NOGED    NDND   NITRD   N2ODD   N2OND   N2FLD   NOFLD   NDN1D   NDN2D   NDN3D   NDN4D   NDN5D   NDN6D   NDN7D   NDN8D   NDN9D   NDN10   NIT1D   NIT2D   NIT3D   NIT4D   NIT5D   NIT6D   NIT7D   NIT8D   NIT9D   NIT10   N2O1D   N2O2D   N2O3D   N2O4D   N2O5D   N2O6D   N2O7D   N2O8D   N2O9D   N2O10   N2F1D   N2F2D   N2F3D   N2F4D   N2F5D   N2F6D   N2F7D   N2F8D   N2F9D   N2F10   NOF1D   NOF2D   NOF3D   NOF4D   NOF5D   NOF6D   NOF7D   NOF8D   NOF9D   NOF10
 2022 121     1    0.00    0.00    0.00    0.00     0.0   0.000   0.000   0.000   0.000     0.0     0.0     0.0     0.0       0    0.00    0.00    0.00    0.00     0.0     0.0     0.0     0.0     0.0     0.0     0.0     0.0     0.0     0.0      0.      0.      0.      0.      0.      0.      0.      0.      0.      0.     0.0     0.0     0.0     0.0     0.0     0.0     0.0     0.0     0.0     0.0     0.0     0.0     0.0     0.0     0.0     0.0     0.0     0.0     0.0     0.0     0.0     0.0     0.0     0.0     0.0     0.0     0.0     0.0     0.0     0.0
 2022 122     2    0.00    0.00    0.00    0.00     0.0   0.000   0.000   0.000   0.000     0.0     0.0     0.0     0.0      14    0.00    0.01    0.00    0.30     0.0     0.0     0.0     0.0     0.0     0.0     0.0     0.0     0.0     0.0      2.      3.      2.      2.      1.      1.      1.      1.      1.      0.     0.0     0.0     0.0     0.0     0.0     0.0     0.0     0.0     0.0     0.0     0.0     0.0     0.0     0.0     0.0     0.0     0.0     0.0     0.0     0.0     0.0     0.0     0.0     0.0     0.0     0.0     0.0     0.0     0.0     0.0
 2022 123     3    0.00    0.00    0.00    0.00     0.0   0.000   0.000   0.000   0.001     0.0     0.0     0.0     0.0      22    0.00    0.02    0.00    0.26     0.0     0.0     0.0     0.0     0.0     0.0     0.0     0.0     0.0     0.0      2.      4.      3.      3.      3.      1.      1.      2.      1.      1.     0.0     0.0     0.0     0.0     0.0     0.0     0.0     0.0     0.0     0.0     0.0     0.0     0.0     0.0     0.0     0.0     0.0     0.0     0.0     0.0     0.0     0.0     0.0     0.0     0.0     0.0     0.0     0.0     0.0     0.0
 2022 124     4    0.00    0.00    0.00    0.00     0.1   0.000   0.000   0.000   0.001     0.0     0.0     0.0     0.0      28    0.00    0.03    0.00    0.26     0.0     0.0     0.0     0.0     0.0     0.0     0.0     0.0     0.0     0.0      3.      5.      3.      4.      3.      1.      1.      2.      2.      1.     0.0     0.0     0.0     0.0     0.0     0.0     0.0     0.0     0.0     0.0     0.0     0.0     0.0     0.0     0.0     0.0     0.0     0.0     0.0     0.0     0.0     0.0     0.0     0.0     0.0     0.0     0.0     0.0     0.0     0.0
 2022 125     5    0.00    0.00    0.00    0.00     0.1   0.000   0.000   0.000   0.001     0.0     0.0     0.0     0.0      28    0.00    0.03    0.00    0.19     0.0     0.0     0.0     0.0     0.0     0.0     0.0     0.0     0.0     0.0      3.      6.      4.      4.      3.      1.      1.      2.      1.      1.     0.0     0.0     0.0     0.0     0.0     0.0     0.0     0.0     0.0     0.0     0.0     0.0     0.0     0.0     0.0     0.0     0.0     0.0     0.0     0.0     0.0     0.0     0.0     0.0     0.0     0.0     0.0     0.0     0.0     0.0
 2022 126     6    0.00    0.00    0.00    0.00     0.1   0.000   0.000   0.000   0.001     0.0     0.0     0.0     0.0      28    0.00    0.03    0.00    0.14     0.0     0.0     0.0     0.0     0.0     0.0     0.0     0.0     0.0     0.0      4.      6.      4.      4.      3.      1.      1.      2.      1.      1.     0.0     0.0     0.0     0.0     0.0     0.0     0.0     0.0     0.0     0.0     0.0     0.0     0.0     0.0     0.0     0.0     0.0     0.0     0.0     0.0     0.0     0.0     0.0     0.0     0.0     0.0     0.0     0.0     0.0     0.0
 2022 127     7    0.00    0.00    0.00    0.00     0.1   0.000   0.000   0.000   0.001     0.0     0.0     0.0     0.0      30    0.00    0.03    0.00    0.17     0.0     0.0     0.0     0.0     0.0     0.0     0.0     0.0     0.0     0.0      4.      6.      4.      5.      3.      1.      1.      2.      1.      1.     0.0     0.0     0.0     0.0     0.0     0.0     0.0     0.0     0.0     0.0     0.0     0.0     0.0     0.0     0.0     0.0     0.0     0.0     0.0     0.0     0.0     0.0     0.0     0.0     0.0     0.0     0.0     0.0     0.0     0.0
 2022 128     8    0.00    0.00    0.00    0.00     0.2   0.000   0.000   0.000   0.001     0.0     0.0     0.0     0.0      38    0.00    0.04    0.00    0.14     0.0     0.0     0.0     0.0     0.0     0.0     0.0     0.0     0.0     0.0      5.      9.      5.      6.      4.      2.      1.      2.      1.      1.     0.0     0.0     0.0     0.0     0.0     0.0     0.0     0.0     0.0     0.0     0.0     0.0     0.0     0.0     0.0     0.0     0.0     0.0     0.0     0.0     0.0     0.0     0.0     0.0     0.0     0.0     0.0     0.0     0.0     0.0
 2022 129     9    0.00    0.00    0.00    0.00     0.2   0.000   0.000   0.000   0.002     0.0     0.0     0.0     0.0      62    0.00    0.06    0.03    0.28     0.0     0.0     0.0     0.0     0.0     0.0     0.0     0.0     0.0     0.0      9.     13.      8.     10.      6.      3.      2.      4.      3.      1.     0.0     0.0     0.0     0.0     0.0     0.0     0.0     0.0     0.0     0.0     0.0     0.0     0.0     0.0     0.0     0.0     0.0     0.0     0.0     0.0     0.0     0.0     0.0     0.0     0.0     0.0     0.0     0.0     0.0     0.0
 2022 130    10    0.00    0.00    0.00    0.00     0.3   0.000   0.000   0.000   0.002     0.0     0.0     0.1     0.0      98    0.00    0.10    0.00    0.56     0.0     0.0     0.0     0.0     0.0     0.0     0.0     0.0     0.0     0.0     12.     19.     12.     15.     10.      5.      4.      7.      5.      3.     0.0     0.0     0.0     0.0     0.0     0.0     0.0     0.0     0.0     0.0     0.0     0.0     0.0     0.0     0.0     0.0     0.0     0.0     0.0     0.0     0.1     0.1     0.0     0.1     0.1     0.0     0.0     0.1     0.0     0.0
 2022 131    11    0.00    0.00    0.00    0.00     0.5   0.000   0.000   0.000   0.003     0.0     0.0     0.1     0.0     140    0.00    0.14    0.00    0.81     0.0     0.0     0.0     0.0     0.0     0.0     0.0     0.0     0.0     0.0     16.     26.     17.     20.     15.      6.      6.     12.      8.      5.     0.0     0.0     0.0     0.0     0.0     0.0     0.0     0.0     0.0     0.0     0.0     0.0     0.0     0.0     0.0     0.0     0.0     0.0     0.0     0.0     0.1     0.1     0.1     0.1     0.1     0.0     0.0     0.1     0.1     0.0
 2022 132    12    0.00    0.00    0.00    0.00     0.7   0.000   0.001   0.000   0.004     0.0     0.0     0.2     0.0     191    0.00    0.19    0.00    1.11     0.0     0.0     0.0     0.0     0.0     0.0     0.0     0.0     0.0     0.0     20.     34.     23.     27.     20.      9.      8.     17.     12.      7.     0.0     0.0     0.0     0.0     0.0     0.0     0.0     0.0     0.0     0.0     0.0     0.0     0.0     0.0     0.0     0.0     0.0     0.0     0.0     0.0     0.1     0.2     0.1     0.1     0.1     0.1     0.1     0.1     0.1     0.1
 2022 133    13    0.00    0.00    0.00    0.00     0.9   0.000   0.001   0.000   0.006     0.0     0.0     0.2     0.0     238    0.00    0.24    0.00    1.39     0.0     0.0     0.0     0.0     0.0     0.0     0.0     0.0     0.0     0.0     22.     41.     27.     34.     25.     11.     10.     21.     16.     10.     0.0     0.0     0.0     0.0     0.0     0.0     0.0     0.0     0.0     0.0     0.0     0.0     0.0     0.0     0.0     0.0     0.0     0.0     0.0     0.0     0.2     0.2     0.1     0.2     0.2     0.1     0.1     0.1     0.1     0.1
 2022 134    14    0.00    0.00    0.00    0.00     1.2   0.000   0.001   0.000   0.007     0.0     0.0     0.3     0.0     260    0.00    0.26    0.00    1.52     0.0     0.0     0.0     0.0     0.0     0.0     0.0     0.0     0.0     0.0     22.     44.     29.     37.     27.     13.     12.     24.     18.     11.     0.0     0.0     0.0     0.0     0.0     0.0     0.0     0.0     0.0     0.0     0.0     0.0     0.0     0.0     0.0     0.0     0.0     0.0     0.0     0.0     0.2     0.2     0.1     0.2     0.2     0.1     0.1     0.2     0.1     0.1
 2022 135    15    0.00    0.00    0.00    0.00     1.5   0.000   0.001   0.000   0.009     0.1     0.0     0.3     0.0     278    0.00    0.28    0.00    1.63     0.0     0.0     0.0     0.0     0.0     0.0     0.0     0.0     0.0     0.0     22.     46.     31.     39.     29.     14.     13.     26.     20.     13.     0.0     0.0     0.0     0.0     0.0     0.0     0.0     0.0     0.0     0.0     0.0     0.0     0.0     0.0     0.0     0.0     0.0     0.0     0.0     0.0     0.2     0.2     0.1     0.2     0.2     0.1     0.1     0.2     0.1     0.1
 2022 136    16    0.00    0.00    0.00    0.00     1.8   0.000   0.002   0.000   0.011     0.1     0.0     0.4     0.0     301    0.00    0.30    0.00    1.77     0.0     0.0     0.0     0.0     0.0     0.0     0.0     0.0     0.0     0.0     26.     48.     33.     42.     31.     15.     14.     28.     22.     14.     0.0     0.0     0.0     0.0     0.0     0.0     0.0     0.0     0.0     0.0     0.0     0.0     0.0     0.0     0.0     0.0     0.0     0.0     0.0     0.0     0.2     0.2     0.1     0.2     0.2     0.1     0.1     0.2     0.2     0.1
 2022 137    17    0.00    0.00    0.00    0.00     2.1   0.000   0.002   0.000   0.012     0.1     0.0     0.4     0.0     298    0.00    0.30    0.00    1.76     0.0     0.0     0.0     0.0     0.0     0.0     0.0     0.0     0.0     0.0     24.     47.     32.     41.     31.     15.     14.     29.     22.     14.     0.0     0.0     0.0     0.0     0.0     0.0     0.0     0.0     0.0     0.0     0.0     0.0     0.0     0.0     0.0     0.0     0.0     0.0     0.0     0.0     0.2     0.2     0.1     0.2     0.2     0.1     0.1     0.2     0.2     0.1
 2022 138    18    0.00    0.00    0.00    0.00     2.4   0.000   0.002   0.000   0.014     0.1     0.0     0.4     0.0     308    0.00    0.31    0.00    1.82     0.0     0.0     0.0     0.0     0.0     0.0     0.0     0.0     0.0     0.0     24.     48.     33.     43.     32.     15.     14.     30.     23.     15.     0.0     0.0     0.0     0.0     0.0     0.0     0.0     0.0     0.0     0.0     0.0     0.0     0.0     0.0     0.0     0.0     0.0     0.0     0.0     0.0     0.2     0.2     0.1     0.2     0.2     0.1     0.1     0.2     0.2     0.1
 2022 139    19    0.00    0.00    0.00    0.00     2.7   0.000   0.003   0.000   0.016     0.1     0.0     0.5     0.0     335    0.00    0.34    0.00    1.98     0.0     0.0     0.0     0.0     0.0     0.0     0.0     0.0     0.0     0.0     24.     53.     36.     47.     35.     17.     16.     32.     26.     16.     0.0     0.1     0.0     0.0     0.0     0.0     0.0     0.0     0.0     0.0     0.0     0.0     0.0     0.0     0.0     0.0     0.0     0.0     0.0     0.0     0.2     0.3     0.1     0.2     0.2     0.1     0.1     0.2     0.2     0.1
 2022 140    20    0.00    0.00    0.00    0.00     3.1   0.000   0.003   0.000   0.018     0.1     0.0     0.6     0.0     366    0.00    0.37    0.00    2.16     0.0     0.0     0.0     0.0     0.0     0.0     0.0     0.0     0.0     0.0     25.     58.     40.     51.     38.     18.     17.     35.     28.     18.     0.0     0.1     0.0     0.1     0.0     0.0     0.0     0.0     0.0     0.0     0.0     0.0     0.0     0.0     0.0     0.0     0.0     0.0     0.0     0.0     0.2     0.3     0.1     0.2     0.3     0.1     0.1     0.2     0.2     0.1
 2022 141    21    0.00    0.00    0.00    0.00     3.4   0.000   0.003   0.000   0.020     0.1     0.0     0.6     0.0     343    0.00    0.34    0.00    2.03     0.0     0.0     0.0     0.0     0.0     0.0     0.0     0.0     0.0     0.0     22.     53.     37.     48.     36.     17.     16.     34.     27.     17.     0.0     0.1     0.0     0.0     0.0     0.0     0.0     0.0     0.0     0.0     0.0     0.0     0.0     0.0     0.0     0.0     0.0     0.0     0.0     0.0     0.2     0.3     0.1     0.2     0.2     0.1     0.1     0.2     0.2     0.1
 2022 142    22    0.00    0.00    0.00    0.00     3.7   0.000   0.004   0.000   0.022     0.1     0.0     0.6     0.0     298    0.00    0.30    0.00    1.76     0.0     0.0     0.0     0.0     0.0     0.0     0.0     0.0     0.0     0.0     18.     45.     31.     41.     31.     15.     14.     30.     24.     15.     0.0     0.0     0.0     0.0     0.0     0.0     0.0     0.0     0.0     0.0     0.0     0.0     0.0     0.0     0.0     0.0     0.0     0.0     0.0     0.0     0.1     0.2     0.1     0.2     0.2     0.1     0.1     0.2     0.2     0.1
 2022 143    23    0.00    0.00    0.01    0.00     3.9   0.000   0.004   0.000   0.023     0.1     0.0     0.7     0.0     244    0.00    0.24    0.00    1.45     0.0     0.0     0.0     0.0     0.0     0.0     0.0     0.0     0.0     0.0     14.     36.     25.     33.     25.     13.     12.     25.     20.     13.     0.0     0.0     0.0     0.0     0.0     0.0     0.0     0.0     0.0     0.0     0.0     0.0     0.0     0.0     0.0     0.0     0.0     0.0     0.0     0.0     0.1     0.2     0.1     0.2     0.2     0.1     0.1     0.2     0.1     0.1
 2022 144    24    0.00    0.00    0.01    0.00     4.2   0.000   0.004   0.000   0.024     0.0     0.0     0.1     0.0     209    0.00    0.21    0.00    0.93     0.0     0.0     0.0     0.0     0.0     0.0     0.0     0.0     0.0     0.0     16.     28.     21.     28.     22.     11.     10.     21.     17.     11.     0.0     0.0     0.0     0.0     0.0     0.0     0.0     0.0     0.0     0.0     0.0     0.0     0.0     0.0     0.0     0.0     0.0     0.0     0.0     0.0     0.0     0.0     0.0     0.1     0.1     0.1     0.1     0.1     0.1     0.1
 2022 145    25    0.00    0.00    0.01    0.00     4.3   0.000   0.004   0.000   0.025     0.0     0.0     0.1     0.0     165    0.00    0.16    0.00    0.68     0.0     0.0     0.0     0.0     0.0     0.0     0.0     0.0     0.0     0.0     14.     16.     11.     23.     18.     10.     10.     18.     14.      9.     0.0     0.0     0.0     0.0     0.0     0.0     0.0     0.0     0.0     0.0     0.0     0.0     0.0     0.0     0.0     0.0     0.0     0.0     0.0     0.0     0.0     0.0     0.0     0.0     0.1     0.1     0.1     0.1     0.1     0.1
 2022 146    26    0.00    0.00    0.01    0.00     4.5   0.000   0.004   0.000   0.026     0.0     0.0     0.1     0.0     168    0.00    0.17    0.00    0.55     0.0     0.0     0.0     0.0     0.0     0.0     0.0     0.0     0.0     0.0     17.     18.     12.     22.     18.     10.     10.     17.     14.      9.     0.0     0.0     0.0     0.0     0.0     0.0     0.0     0.0     0.0     0.0     0.0     0.0     0.0     0.0     0.0     0.0     0.0     0.0     0.0     0.0     0.0     0.0     0.0     0.0     0.0     0.0     0.1     0.1     0.1     0.1
 2022 147    27    0.00    0.00    0.01    0.00     4.7   0.000   0.005   0.000   0.026     0.0     0.0     0.1     0.0     179    0.00    0.18    0.00    0.49     0.0     0.0     0.0     0.0     0.0     0.0     0.0     0.0     0.0     0.0     20.     21.     14.     21.     19.     11.     10.     18.     15.      9.     0.0     0.0     0.0     0.0     0.0     0.0     0.0     0.0     0.0     0.0     0.0     0.0     0.0     0.0     0.0     0.0     0.0     0.0     0.0     0.0     0.0     0.0     0.0     0.0     0.0     0.0     0.0     0.1     0.1     0.1
 2022 148    28    0.00    0.00    0.01    0.00     4.9   0.000   0.005   0.005   0.027     0.0     0.0     0.1     4.5     208    0.05    0.21    4.49    0.49     0.3     0.8     1.0     2.4     0.0     0.0     0.0     0.0     0.0     0.0     24.     27.     18.     22.     23.     12.     12.     21.     17.     10.     0.0     0.0     0.0     0.1     0.0     0.0     0.0     0.0     0.0     0.0     0.3     0.8     1.0     2.4     0.0     0.0     0.0     0.0     0.0     0.0     0.0     0.0     0.0     0.0     0.0     0.0     0.0     0.1     0.1     0.1
 2022 149    29    0.00    0.00    0.01    0.01     5.1   0.000   0.005   0.014   0.027     0.0     0.0     0.1     9.2     239    0.11    0.24    9.12    0.49     0.4     0.8     1.0     2.5     2.0     1.5     1.0     0.0     0.0     0.0     27.     33.     22.     27.     24.     11.     14.     24.     20.     12.     0.0     0.0     0.0     0.1     0.0     0.0     0.0     0.0     0.0     0.0     0.4     0.8     1.0     2.5     2.0     1.5     1.0     0.0     0.0     0.0     0.0     0.0     0.0     0.0     0.0     0.0     0.0     0.1     0.1     0.1
 2022 150    30    0.00    0.00    0.01    0.03     5.4   0.000   0.005   0.025   0.028     0.0     0.1     0.1    11.6     285    0.14    0.28   11.47    0.47     0.5     0.9     1.0     2.5     2.4     1.6     1.7     1.1     0.0     0.0     32.     41.     28.     34.     26.     14.     12.     30.     24.     15.     0.0     0.0     0.0     0.1     0.1     0.0     0.0     0.0     0.0     0.0     0.5     0.9     1.0     2.5     2.4     1.6     1.6     1.0     0.0     0.0     0.0     0.0     0.0     0.0     0.0     0.0     0.0     0.1     0.1     0.1
 2022 151    31    0.00    0.00    0.01    0.04     5.7   0.000   0.006   0.037   0.028     0.0     0.1     0.1    11.9     337    0.14    0.34   11.72    0.41     0.7     0.7     1.0     1.8     2.1     1.6     1.6     1.6     0.7     0.0     32.     58.     31.     48.     31.     15.     13.     32.     26.     16.     0.0     0.1     0.0     0.1     0.1     0.0     0.0     0.1     0.0     0.0     0.7     0.7     1.0     1.8     2.1     1.5     1.6     1.6     0.7     0.0     0.0     0.0     0.0     0.0     0.0     0.0     0.0     0.0     0.1     0.1
 2022 152    32    0.00    0.00    0.01    0.04     6.1   0.001   0.006   0.043   0.029     0.1     0.3     0.2     6.4     402    0.07    0.40    6.31    0.74     0.4     0.5     0.5     0.9     1.0     0.8     0.9     0.7     0.5     0.2     44.     64.     46.     56.     39.     21.     19.     33.     27.     17.     0.0     0.1     0.1     0.1     0.0     0.0     0.0     0.0     0.0     0.0     0.4     0.5     0.5     0.9     1.0     0.7     0.9     0.7     0.5     0.2     0.1     0.0     0.0     0.0     0.0     0.0     0.0     0.1     0.1     0.1
 2022 153    33    0.00    0.00    0.01    0.05     6.5   0.001   0.007   0.046   0.030     0.1     0.6     0.5     3.1     374    0.03    0.37    3.07    1.22     0.1     0.2     0.3     0.5     0.5     0.4     0.4     0.4     0.2     0.1     38.     57.     42.     51.     37.     19.     18.     33.     27.     17.     0.0     0.1     0.0     0.1     0.0     0.0     0.0     0.0     0.0     0.0     0.1     0.2     0.3     0.4     0.5     0.4     0.4     0.4     0.2     0.1     0.2     0.1     0.0     0.1     0.1     0.1     0.1     0.1     0.2     0.1
 2022 154    34    0.00    0.00    0.01    0.05     6.9   0.001   0.007   0.048   0.032     0.2     0.9     0.7     1.4     342    0.01    0.34    1.41    1.60     0.0     0.1     0.1     0.2     0.2     0.2     0.2     0.2     0.1     0.1     33.     51.     37.     47.     34.     18.     17.     31.     25.     16.     0.0     0.1     0.0     0.0     0.0     0.0     0.0     0.0     0.0     0.0     0.0     0.1     0.1     0.2     0.2     0.2     0.2     0.2     0.1     0.1     0.2     0.2     0.1     0.1     0.1     0.1     0.1     0.2     0.2     0.1
 2022 155    35    0.00    0.00    0.01    0.05     7.2   0.001   0.007   0.048   0.033     0.2     0.9     0.8     0.6     317    0.01    0.32    0.58    1.76     0.0     0.0     0.0     0.1     0.1     0.1     0.1     0.1     0.0     0.0     29.     47.     34.     43.     31.     16.     15.     29.     24.     15.     0.0     0.0     0.0     0.0     0.0     0.0     0.0     0.0     0.0     0.0     0.0     0.0     0.0     0.1     0.1     0.1     0.1     0.1     0.0     0.0     0.2     0.2     0.1     0.2     0.2     0.1     0.1     0.2     0.2     0.1
 2022 156    36    0.00    0.00    0.01    0.05     7.5   0.001   0.008   0.048   0.035     0.2     1.0     0.8     0.2     337    0.00    0.34    0.20    1.98     0.0     0.0     0.0     0.0     0.1     0.0     0.0     0.0     0.0     0.0     27.     51.     36.     47.     34.     18.     16.     31.     26.     16.     0.0     0.1     0.0     0.0     0.0     0.0     0.0     0.0     0.0     0.0     0.0     0.0     0.0     0.0     0.1     0.0     0.0     0.0     0.0     0.0     0.2     0.3     0.1     0.2     0.2     0.1     0.1     0.2     0.2     0.1
 2022 157    37    0.00    0.01    0.01    0.05     7.9   0.001   0.008   0.048   0.037     0.2     1.1     0.9     0.1     364    0.00    0.36    0.05    2.14     0.0     0.0     0.0     0.0     0.0     0.0     0.0     0.0     0.0     0.0     26.     56.     40.     51.     37.     19.     18.     34.     28.     18.     0.0     0.1     0.0     0.1     0.0     0.0     0.0     0.0     0.0     0.0     0.0     0.0     0.0     0.0     0.0     0.0     0.0     0.0     0.0     0.0     0.2     0.3     0.1     0.2     0.2     0.1     0.1     0.2     0.2     0.1
 2022 158    38    0.00    0.01    0.01    0.05     8.3   0.001   0.008   0.048   0.040     0.3     1.2     1.0     0.0     402    0.00    0.40    0.01    2.37     0.0     0.0     0.0     0.0     0.0     0.0     0.0     0.0     0.0     0.0     29.     61.     44.     56.     41.     21.     20.     38.     31.     20.     0.0     0.1     0.0     0.1     0.0     0.0     0.0     0.0     0.0     0.0     0.0     0.0     0.0     0.0     0.0     0.0     0.0     0.0     0.0     0.0     0.2     0.3     0.1     0.3     0.3     0.2     0.1     0.3     0.2     0.1
 2022 159    39    0.00    0.01    0.01    0.05     8.7   0.001   0.009   0.048   0.042     0.1     0.5     0.4     0.0     429    0.00    0.43    0.01    2.28     0.0     0.0     0.0     0.0     0.0     0.0     0.0     0.0     0.0     0.0     40.     64.     45.     59.     43.     19.     21.     40.     32.     21.     0.0     0.1     0.0     0.1     0.0     0.0     0.0     0.0     0.0     0.0     0.0     0.0     0.0     0.0     0.0     0.0     0.0     0.0     0.0     0.0     0.0     0.3     0.1     0.3     0.3     0.1     0.2     0.3     0.2     0.1
 2022 160    40    0.00    0.01    0.01    0.05     9.1   0.001   0.009   0.048   0.045     0.3     1.3     1.0     0.0     437    0.00    0.44    0.00    2.53     0.0     0.0     0.0     0.0     0.0     0.0     0.0     0.0     0.0     0.0     40.     65.     46.     60.     44.     20.     19.     42.     33.     22.     0.0     0.1     0.0     0.1     0.0     0.0     0.0     0.0     0.0     0.0     0.0     0.0     0.0     0.0     0.0     0.0     0.0     0.0     0.0     0.0     0.2     0.3     0.1     0.3     0.3     0.1     0.1     0.3     0.2     0.2
 2022 161    41    0.00    0.01    0.01    0.05     9.6   0.001   0.010   0.048   0.047     0.3     1.8     1.4     0.0     440    0.00    0.44    0.00    2.61     0.0     0.0     0.0     0.0     0.0     0.0     0.0     0.0     0.0     0.0     39.     65.     46.     60.     44.     20.     19.     43.     34.     22.     0.0     0.1     0.0     0.1     0.0     0.0     0.0     0.0     0.0     0.0     0.0     0.0     0.0     0.0     0.0     0.0     0.0     0.0     0.0     0.0     0.3     0.3     0.1     0.3     0.3     0.1     0.1     0.3     0.2     0.2
 2022 162    42    0.00    0.01    0.02    0.05    10.0   0.001   0.010   0.048   0.050     0.3     1.8     1.4     0.0     446    0.00    0.45    0.00    2.65     0.0     0.0     0.0     0.0     0.0     0.0     0.0     0.0     0.0     0.0     39.     65.     46.     60.     44.     21.     20.     43.     35.     23.     0.0     0.1     0.0     0.1     0.0     0.0     0.0     0.0     0.0     0.0     0.0     0.0     0.0     0.0     0.0     0.0     0.0     0.0     0.0     0.0     0.3     0.3     0.1     0.3     0.3     0.2     0.1     0.3     0.2     0.2
 2022 163    43    0.00    0.01    0.02    0.05    10.5   0.001   0.010   0.048   0.053     0.3     1.8     1.5     0.0     472    0.00    0.47    0.00    2.80     0.0     0.0     0.0     0.0     0.0     0.0     0.0     0.0     0.0     0.0     38.     69.     49.     64.     47.     23.     22.     46.     37.     24.     0.0     0.1     0.0     0.1     0.0     0.0     0.0     0.0     0.0     0.0     0.0     0.0     0.0     0.0     0.0     0.0     0.0     0.0     0.0     0.0     0.3     0.4     0.2     0.3     0.3     0.2     0.2     0.3     0.3     0.2
 2022 164    44    0.00    0.02    0.02    0.05    11.0   0.001   0.011   0.048   0.056     0.4     1.8     1.5     0.0     531    0.00    0.53    0.00    3.15     0.0     0.0     0.0     0.0     0.0     0.0     0.0     0.0     0.0     0.0     39.     79.     55.     73.     54.     26.     25.     52.     42.     27.     0.0     0.1     0.1     0.1     0.1     0.0     0.0     0.1     0.0     0.0     0.0     0.0     0.0     0.0     0.0     0.0     0.0     0.0     0.0     0.0     0.3     0.4     0.2     0.3     0.4     0.2     0.2     0.4     0.3     0.2
 2022 165    45    0.00    0.02    0.02    0.05    11.6   0.001   0.012   0.048   0.060     0.4     1.8     1.6     0.0     622    0.00    0.62    0.00    3.69     0.0     0.0     0.0     0.0     0.0     0.0     0.0     0.0     0.0     0.0     41.     92.     65.     87.     64.     31.     30.     62.     50.     32.     0.0     0.1     0.1     0.1     0.1     0.0     0.0     0.1     0.0     0.0     0.0     0.0     0.0     0.0     0.0     0.0     0.0     0.0     0.0     0.0     0.3     0.5     0.2     0.4     0.4     0.2     0.2     0.4     0.3     0.2
 2022 166    46    0.00    0.02    0.02    0.05    12.3   0.001   0.012   0.048   0.063     0.4     1.9     1.7     0.0     635    0.00    0.64    0.00    3.78     0.0     0.0     0.0     0.0     0.0     0.0     0.0     0.0     0.0     0.0     37.     90.     64.     89.     66.     33.     31.     64.     53.     34.     0.0     0.1     0.1     0.1     0.1     0.0     0.0     0.1     0.1     0.0     0.0     0.0     0.0     0.0     0.0     0.0     0.0     0.0     0.0     0.0     0.3     0.5     0.2     0.4     0.4     0.2     0.2     0.4     0.4     0.2
 2022 167    47    0.01    0.02    0.02    0.05    12.9   0.001   0.013   0.048   0.067     0.4     1.9     1.8     0.0     631    0.00    0.63    0.00    3.78     0.0     0.0     0.0     0.0     0.0     0.0     0.0     0.0     0.0     0.0     34.     85.     61.     89.     67.     33.     32.     66.     54.     35.     0.0     0.1     0.1     0.1     0.1     0.0     0.0     0.1     0.1     0.0     0.0     0.0     0.0     0.0     0.0     0.0     0.0     0.0     0.0     0.0     0.2     0.4     0.2     0.4     0.4     0.2     0.2     0.5     0.4     0.2
 2022 168    48    0.01    0.02    0.03    0.05    13.5   0.001   0.014   0.048   0.071     0.4     1.8     1.8     0.0     586    0.00    0.59    0.00    3.54     0.0     0.0     0.0     0.0     0.0     0.0     0.0     0.0     0.0     0.0     28.     75.     54.     82.     63.     32.     30.     63.     52.     34.     0.0     0.1     0.1     0.1     0.1     0.0     0.0     0.1     0.1     0.0     0.0     0.0     0.0     0.0     0.0     0.0     0.0     0.0     0.0     0.0     0.2     0.4     0.2     0.4     0.4     0.2     0.2     0.4     0.4     0.2
 2022 169    49    0.01    0.02    0.03    0.05    14.1   0.001   0.014   0.048   0.074     0.4     1.8     1.9     0.0     596    0.00    0.60    0.00    3.62     0.0     0.0     0.0     0.0     0.0     0.0     0.0     0.0     0.0     0.0     27.     72.     52.     84.     65.     33.     32.     65.     54.     35.     0.0     0.1     0.1     0.1     0.1     0.0     0.0     0.1     0.1     0.0     0.0     0.0     0.0     0.0     0.0     0.0     0.0     0.0     0.0     0.0     0.2     0.4     0.2     0.4     0.4     0.2     0.2     0.4     0.4     0.2