*Soil Organic Matter daily output file

*DSSAT Cropping System Model Ver. 4.8.2.000 -release  NOV 03, 2024 05:23:59

*RUN   1        : silt_loam_13in_irr        MZCER048 UNLI2201    1
 MODEL          : MZCER048 - Maize
 EXPERIMENT     : UNLI2201 MZ IRRIGATED MAIZE PRODUCTION
 DATA PATH      :
 TREATMENT  1   : silt_loam_13in_irr        MZCER048
  
@YEAR DOY   DAS    OMAC    SCDD    SOCD    SC0D    SCTD   SOMCT    LCTD    ONAC    SNDD    SOND    SN0D    SNTD   SOMNT    LNTD
 2022 120     0       0   14312  148718       0  148718  148718     0.0    0.00  1431.2 14871.8    0.00 14871.8 14871.8    0.00
 2022 121     1       0   14312  148717       0  148717  148717     0.0    0.00  1431.2 14871.7    0.00 14871.7 14871.7    0.00
 2022 122     2       0   14312  148716       0  148716  148716     0.0    0.00  1431.2 14871.6    0.00 14871.6 14871.6    0.00
 2022 123     3       0   14312  148715       0  148715  148715     0.0    0.00  1431.2 14871.5    0.00 14871.5 14871.5    0.00
 2022 124     4       0   14312  148714       0  148714  148714     0.0    0.00  1431.2 14871.4    0.00 14871.4 14871.4    0.00
 2022 125     5       0   14311  148714       0  148714  148714     0.0    0.00  1431.1 14871.4    0.00 14871.4 14871.4    0.00
 2022 126     6       0   14311  148714       0  148714  148714     0.0    0.00  1431.1 14871.4    0.00 14871.4 14871.4    0.00
 2022 127     7       0   14311  148713       0  148713  148713     0.0    0.00  1431.1 14871.3    0.00 14871.3 14871.3    0.00
 2022 128     8       0   14311  148712       0  148712  148712     0.0    0.00  1431.1 14871.2    0.00 14871.2 14871.2    0.00
 2022 129     9       0   14311  148710       0  148710  148710     0.0    0.00  1431.1 14871.0    0.00 14871.0 14871.0    0.00
 2022 130    10       0   14310  148707       0  148707  148707     0.0    0.00  1431.0 14870.7    0.00 14870.7 14870.7    0.00
 2022 131    11       0   14310  148703       0  148703  148703     0.0    0.00  1431.0 14870.3    0.00 14870.3 14870.3    0.00
 2022 132    12       0   14309  148700       0  148700  148700     0.0    0.00  1430.9 14870.0    0.00 14870.0 14870.0    0.00
 2022 133    13       0   14309  148696       0  148696  148696     0.0    0.00  1430.9 14869.6    0.00 14869.6 14869.6    0.00
 2022 134    14       0   14308  148692       0  148692  148692     0.0    0.00  1430.8 14869.2    0.00 14869.2 14869.2    0.00
 2022 135    15       0   14308  148688       0  148688  148688     0.0    0.00  1430.8 14868.8    0.00 14868.8 14868.8    0.00
 2022 136    16       0   14307  148684       0  148684  148684     0.0    0.00  1430.7 14868.4    0.00 14868.4 14868.4    0.00
 2022 137    17       0   14307  148681       0  148681  148681     0.0    0.00  1430.7 14868.1    0.00 14868.1 14868.1    0.00
 2022 138    18       0   14306  148677       0  148677  148677     0.0    0.00  1430.6 14867.7    0.00 14867.7 14867.7    0.00
 2022 139    19       0   14306  148673       0  148673  148673     0.0    0.00  1430.6 14867.3    0.00 14867.3 14867.3    0.00
 2022 140    20       0   14305  148669       0  148669  148669     0.0    0.00  1430.5 14866.9    0.00 14866.9 14866.9    0.00
 2022 141    21       0   14305  148665       0  148665  148665     0.0    0.00  1430.5 14866.5    0.00 14866.5 14866.5    0.00
 2022 142    22       0   14305  148662       0  148662  148662     0.0    0.00  1430.5 14866.2    0.00 14866.2 14866.2    0.00
 2022 143    23       0   14304  148660       0  148660  148660     0.0    0.00  1430.4 14866.0    0.00 14866.0 14866.0    0.00
 2022 144    24       0   14304  148659       0  148659  148659     0.0    0.00  1430.4 14865.9    0.00 14865.9 14865.9    0.00
 2022 145    25       0   14304  148658       0  148658  148658     0.0    0.00  1430.4 14865.8    0.00 14865.8 14865.8    0.00
 2022 146    26       0   14304  148657       0  148657  148657     0.0    0.00  1430.4 14865.7    0.00 14865.7 14865.7    0.00
 2022 147    27       0   14303  148655       0  148655  148655     0.0    0.00  1430.3 14865.5    0.00 14865.5 14865.5    0.00
 2022 148    28       0   14303  148653       0  148653  148653     0.0    0.00  1430.3 14865.3    0.00 14865.3 14865.3    0.00
 2022 149    29       0   14303  148650       0  148650  148650     0.0    0.00  1430.3 14865.0    0.00 14865.0 14865.0    0.00
 2022 150    30       0   14302  148646       0  148646  148646     0.0    0.00  1430.2 14864.6    0.00 14864.6 14864.6    0.00
 2022 151    31       0   14302  148642       0  148642  148642     0.0    0.00  1430.2 14864.2    0.00 14864.2 14864.2    0.00
 2022 152    32       0   14301  148638       0  148638  148638     0.1    0.00  1430.1 14863.8    0.00 14863.8 14863.8    0.00
 2022 153    33       0   14301  148634       0  148634  148634     0.1    0.00  1430.1 14863.4    0.00 14863.4 14863.4    0.00
 2022 154    34       0   14300  148631       0  148631  148631     0.2    0.00  1430.0 14863.1    0.00 14863.1 14863.1    0.01
 2022 155    35       0   14300  148628       0  148628  148628     0.3    0.00  1430.0 14862.8    0.00 14862.8 14862.8    0.01
 2022 156    36       0   14299  148625       0  148625  148624     0.5    0.00  1429.9 14862.4    0.00 14862.4 14862.4    0.01
 2022 157    37       0   14299  148621       0  148621  148621     0.6    0.00  1429.9 14862.1    0.00 14862.1 14862.1    0.01
 2022 158    38       0   14298  148617       0  148617  148616     0.8    0.00  1429.8 14861.6    0.00 14861.6 14861.6    0.02
 2022 159    39       0   14298  148613       0  148613  148612     1.0    0.00  1429.8 14861.2    0.00 14861.2 14861.2    0.02
 2022 160    40       0   14297  148608       0  148608  148607     1.2    0.00  1429.7 14860.8    0.00 14860.8 14860.7    0.02
 2022 161    41       0   14297  148604       0  148604  148603     1.4    0.00  1429.7 14860.3    0.00 14860.3 14860.3    0.03
 2022 162    42       0   14296  148600       0  148600  148598     1.7    0.00  1429.6 14859.8    0.00 14859.8 14859.8    0.03
 2022 163    43       0   14296  148595       0  148595  148593     2.1    0.00  1429.6 14859.4    0.00 14859.4 14859.3    0.04
 2022 164    44       0   14295  148590       0  148590  148588     2.5    0.00  1429.5 14858.8    0.00 14858.8 14858.8    0.04
 2022 165    45       0   14294  148584       0  148584  148582     2.9    0.00  1429.4 14858.2    0.00 14858.2 14858.2    0.05
 2022 166    46       0   14293  148579       0  148579  148575     3.4    0.00  1429.3 14857.6    0.00 14857.6 14857.5    0.06
 2022 167    47       0   14293  148573       0  148573  148569     3.9    0.00  1429.3 14857.0    0.00 14857.0 14856.9    0.06
 2022 168    48       0   14292  148568       0  148568  148563     4.5    0.00  1429.2 14856.4    0.00 14856.4 14856.3    0.07
 2022 169    49       0   14292  148562       0  148562  148557     5.2    0.00  1429.2 14855.8    0.00 14855.8 14855.7    0.08
 2022 170    50       0   14291  148557       0  148557  148551     5.9    0.00  1429.1 14855.2    0.00 14855.2 14855.1    0.09
 2022 171    51       0   14291  148552       0  148552  148545     6.6    0.00  1429.1 14854.6    0.00 14854.6 14854.5    0.10
 2022 172    52       0   14290  148546       0  148546  148539     7.4    0.00  1429.0 14854.0    0.00 14854.0 14853.9    0.11
 2022 173    53       0   14290  148541       0  148541  148533     8.2    0.00  1429.0 14853.4    0.00 14853.4 14853.3    0.12
 2022 174    54       0   14289  148536       0  148536  148527     9.0    0.00  1428.9 14852.8    0.00 14852.8 14852.7    0.13
 2022 175    55       0   14289  148532       0  148532  148522     9.9    0.00  1428.9 14852.3    0.00 14852.3 14852.2    0.14
 2022 176    56       0   14289  148528       0  148528  148517    10.9    0.00  1428.8 14851.8    0.00 14851.8 14851.7    0.16
 2022 177    57       0   14288  148524       0  148524  148513    11.8    0.00  1428.8 14851.4    0.00 14851.4 14851.2    0.17
 2022 178    58       0   14288  148521       0  148521  148508    12.8    0.00  1428.8 14851.0    0.00 14851.0 14850.8    0.19
 2022 179    59       0   14288  148518       0  148518  148504    13.9    0.00  1428.8 14850.6    0.00 14850.6 14850.4    0.20
 2022 180    60       0   14287  148515       0  148515  148500    15.0    0.00  1428.7 14850.2    0.00 14850.2 14850.0    0.22
 2022 181    61       0   14287  148512       0  148512  148496    16.2    0.00  1428.7 14849.8    0.00 14849.8 14849.6    0.23
 2022 182    62       0   14287  148509       0  148509  148492    17.4    0.00  1428.7 14849.4    0.00 14849.4 14849.2    0.25
 2022 183    63       0   14287  148506       0  148506  148487    18.6    0.00  1428.7 14849.0    0.00 14849.0 14848.7    0.27
 2022 184    64       0   14286  148501       0  148501  148482    19.6    0.00  1428.6 14848.4    0.00 14848.4 14848.1    0.29
 2022 185    65       0   14285  148496       0  148496  148476    20.5    0.00  1428.5 14847.9    0.00 14847.9 14847.5    0.32
 2022 186    66       0   14284  148491       0  148491  148470    21.4    0.00  1428.4 14847.3    0.00 14847.3 14846.9    0.34
 2022 187    67       0   14284  148486       0  148486  148464    22.2    0.00  1428.3 14846.7    0.00 14846.7 14846.3    0.37
 2022 188    68       0   14283  148481       0  148481  148458    23.0    0.00  1428.3 14846.1    0.00 14846.1 14845.7    0.40
 2022 189    69       0   14282  148475       0  148475  148451    23.8    0.00  1428.2 14845.5    0.00 14845.5 14845.1    0.43
 2022 190    70       0   14281  148469       0  148469  148445    24.5    0.00  1428.1 14844.9    0.00 14844.9 14844.4    0.46
 2022 191    71       0   14281  148464       0  148464  148438    25.1    0.00  1428.0 14844.2    0.00 14844.2 14843.7    0.48
 2022 192    72       0   14280  148458       0  148458  148432    25.9    0.00  1427.9 14843.6    0.00 14843.6 14843.1    0.51
 2022 193    73       0   14279  148452       0  148452  148426    26.7    0.00  1427.9 14843.0    0.00 14843.0 14842.4    0.54
 2022 194    74       0   14278  148447       0  148447  148420    27.6    0.00  1427.8 14842.4    0.00 14842.4 14841.8    0.56
 2022 195    75       0   14278  148442       0  148442  148414    28.5    0.00  1427.7 14841.8    0.00 14841.8 14841.2    0.59
 2022 196    76       0   14277  148437       0  148437  148408    29.6    0.00  1427.6 14841.2    0.00 14841.2 14840.6    0.61
 2022 197    77       0   14276  148433       0  148433  148402    30.7    0.00  1427.6 14840.7    0.00 14840.7 14840.1    0.64
 2022 198    78       0   14276  148428       0  148428  148396    31.8    0.00  1427.5 14840.1    0.00 14840.1 14839.5    0.67
 2022 199    79       0   14275  148424       0  148424  148391    33.0    0.00  1427.5 14839.6    0.00 14839.6 14838.9    0.69
 2022 200    80       0   14275  148419       0  148419  148385    34.2    0.00  1427.4 14839.0    0.00 14839.0 14838.3    0.72
 2022 201    81       0   14274  148415       0  148415  148380    35.5    0.00  1427.4 14838.5    0.00 14838.5 14837.8    0.74
 2022 202    82       0   14274  148412       0  148412  148375    36.9    0.00  1427.3 14838.1    0.00 14838.1 14837.3    0.77
 2022 203    83       0   14273  148408       0  148408  148370    38.1    0.00  1427.3 14837.5    0.00 14837.5 14836.7    0.80
 2022 204    84       0   14273  148403       0  148403  148364    39.4    0.00  1427.2 14837.0    0.00 14837.0 14836.2    0.82
 2022 205    85       0   14272  148399       0  148399  148359    40.6    0.00  1427.1 14836.5    0.00 14836.5 14835.7    0.85
 2022 206    86       0   14272  148396       0  148396  148354    42.0    0.00  1427.1 14836.0    0.00 14836.0 14835.1    0.88
 2022 207    87       0   14271  148392       0  148392  148349    43.2    0.00  1427.0 14835.5    0.00 14835.5 14834.6    0.91
 2022 208    88       0   14271  148389       0  148389  148344    44.5    0.00  1427.0 14835.1    0.00 14835.1 14834.2    0.93
 2022 209    89       0   14270  148385       0  148385  148339    45.6    0.00  1426.9 14834.6    0.00 14834.6 14833.7    0.96
 2022 210    90       0   14269  148382       0  148382  148335    46.7    0.00  1426.8 14834.2    0.00 14834.2 14833.2    0.99
 2022 211    91       0   14269  148378       0  148378  148331    47.6    0.00  1426.8 14833.8    0.00 14833.8 14832.8    1.02
 2022 212    92       0   14268  148375       0  148375  148326    48.6    0.00  1426.7 14833.4    0.00 14833.4 14832.3    1.05
 2022 213    93       0   14268  148371       0  148371  148322    49.6    0.00  1426.7 14832.9    0.00 14832.9 14831.8    1.08
 2022 214    94       0   14267  148367       0  148367  148317    50.7    0.00  1426.6 14832.5    0.00 14832.5 14831.4    1.11
 2022 215    95       0   14266  148363       0  148363  148312    51.6    0.00  1426.5 14832.0    0.00 14832.0 14830.8    1.14
 2022 216    96       0   14266  148359       0  148359  148306    52.6    0.00  1426.4 14831.5    0.00 14831.5 14830.3    1.17
 2022 217    97       0   14265  148355       0  148355  148301    53.7    0.00  1426.4 14831.0    0.00 14831.0 14829.8    1.20
 2022 218    98       0   14264  148351       0  148351  148296    54.8    0.00  1426.3 14830.5    0.00 14830.5 14829.2    1.23
 2022 219    99       0   14264  148347       0  148347  148291    56.0    0.00  1426.3 14830.0    0.00 14830.0 14828.7    1.26
 2022 220   100       0   14263  148343       0  148343  148286    57.2    0.00  1426.2 14829.5    0.00 14829.5 14828.2    1.29
 2022 221   101       0   14263  148340       0  148340  148282    58.5    0.00  1426.1 14829.1    0.00 14829.1 14827.8    1.32
 2022 222   102       0   14262  148337       0  148337  148277    59.8    0.00  1426.1 14828.7    0.00 14828.7 14827.3    1.35
 2022 223   103       0   14262  148335       0  148335  148273    61.2    0.00  1426.1 14828.3    0.00 14828.3 14826.9    1.38
 2022 224   104       0   14262  148332       0  148332  148269    62.7    0.00  1426.0 14827.9    0.00 14827.9 14826.5    1.41
 2022 225   105       0   14261  148329       0  148329  148265    64.1    0.00  1426.0 14827.5    0.00 14827.5 14826.1    1.45
 2022 226   106       0   14261  148326       0  148326  148261    65.6    0.00  1426.0 14827.1    0.00 14827.1 14825.7    1.48
 2022 227   107       0   14261  148323       0  148323  148256    67.0    0.00  1425.9 14826.7    0.00 14826.7 14825.2    1.52
 2022 228   108       0   14260  148320       0  148320  148252    68.2    0.00  1425.9 14826.3    0.00 14826.3 14824.7    1.55
 2022 229   109       0   14260  148317       0  148317  148247    69.4    0.00  1425.8 14825.9    0.00 14825.9 14824.3    1.58
 2022 230   110       0   14259  148314       0  148314  148243    70.7    0.00  1425.8 14825.5    0.00 14825.5 14823.8    1.62
 2022 231   111       0   14259  148311       0  148311  148239    72.0    0.00  1425.7 14825.1    0.00 14825.1 14823.4    1.65
 2022 232   112       0   14259  148309       0  148309  148235    73.4    0.00  1425.7 14824.7    0.00 14824.7 14823.1    1.69
 2022 233   113       0   14258  148307       0  148307  148232    74.8    0.00  1425.7 14824.4    0.00 14824.4 14822.7    1.72
 2022 234   114       0   14258  148305       0  148305  148228    76.3    0.00  1425.6 14824.1    0.00 14824.1 14822.3    1.76
 2022 235   115       0   14258  148303       0  148303  148225    77.8    0.00  1425.6 14823.8    0.00 14823.8 14822.0    1.80
 2022 236   116       0   14257  148301       0  148301  148221    79.3    0.00  1425.6 14823.4    0.00 14823.4 14821.6    1.83
 2022 237   117       0   14257  148298       0  148298  148218    80.8    0.00  1425.6 14823.1    0.00 14823.1 14821.2    1.87
 2022 238   118       0   14257  148296       0  148296  148214    82.3    0.00  1425.5 14822.8    0.00 14822.8 14820.9    1.91
 2022 239   119       0   14256  148294       0  148294  148210    83.8    0.00  1425.5 14822.4    0.00 14822.4 14820.5    1.95
 2022 240   120       0   14256  148291       0  148291  148206    85.3    0.00  1425.5 14822.0    0.00 14822.0 14820.1    1.99
 2022 241   121       0   14256  148289       0  148289  148202    86.7    0.00  1425.4 14821.7    0.00 14821.7 14819.6    2.02
 2022 242   122       0   14256  148286       0  148286  148198    88.2    0.00  1425.4 14821.3    0.00 14821.3 14819.2    2.06
 2022 243   123       0   14255  148284       0  148284  148194    89.8    0.00  1425.4 14821.0    0.00 14821.0 14818.9    2.10
 2022 244   124       0   14255  148281       0  148281  148190    91.3    0.00  1425.3 14820.6    0.00 14820.6 14818.5    2.14
 2022 245   125       0   14255  148279       0  148279  148187    92.8    0.00  1425.3 14820.3    0.00 14820.3 14818.1    2.18
 2022 246   126       0   14255  148277       0  148277  148183    94.3    0.00  1425.3 14819.9    0.00 14819.9 14817.7    2.22
 2022 247   127       0   14254  148275       0  148275  148179    95.8    0.00  1425.3 14819.6    0.00 14819.6 14817.4    2.26
 2022 248   128       0   14254  148273       0  148273  148176    97.4    0.00  1425.2 14819.3    0.00 14819.3 14817.0    2.31
 2022 249   129       0   14254  148272       0  148272  148173    98.9    0.00  1425.2 14819.0    0.00 14819.0 14816.7    2.35
 2022 250   130       0   14254  148270       0  148270  148169   100.4    0.00  1425.2 14818.7    0.00 14818.7 14816.3    2.39
 2022 251   131       0   14253  148268       0  148268  148166   102.0    0.00  1425.2 14818.4    0.00 14818.4 14816.0    2.43
 2022 252   132       0   14253  148266       0  148266  148163   103.5    0.00  1425.2 14818.1    0.00 14818.1 14815.6    2.48
 2022 253   133       0   14253  148264       0  148264  148159   105.0    0.00  1425.1 14817.8    0.00 14817.8 14815.3    2.52
 2022 254   134       0   14253  148262       0  148262  148156   106.4    0.00  1425.1 14817.5    0.00 14817.5 14815.0    2.56
 2022 255   135       0   14253  148261       0  148261  148153   107.9    0.00  1425.1 14817.3    0.00 14817.3 14814.7    2.60
 2022 256   136       0   14252  148259       0  148259  148150   109.4    0.00  1425.1 14817.0    0.00 14817.0 14814.4    2.65
 2022 257   137       0   14252  148258       0  148258  148147   110.9    0.00  1425.1 14816.8    0.00 14816.8 14814.1    2.69
 2022 258   138       0   14252  148257       0  148257  148145   112.4    0.00  1425.0 14816.6    0.00 14816.6 14813.8    2.74
 2022 259   139       0   14252  148255       0  148255  148141   113.9    0.00  1425.0 14816.3    0.00 14816.3 14813.5    2.78
 2022 260   140       0   14252  148253       0  148253  148138   114.9    0.00  1425.0 14816.0    0.00 14816.0 14813.1    2.82
 2022 261   141       0   14251  148248       0  148248  148134   114.0    0.00  1424.9 14815.6    0.00 14815.6 14812.7    2.82
 2022 262   142       0   14251  148243       0  148243  148130   113.1    0.00  1424.9 14815.2    0.00 14815.2 14812.4    2.82
 2022 263   143       0   14250  148239       0  148239  148127   112.3    0.00  1424.8 14814.8    0.00 14814.8 14812.0    2.81
