*GROWTH ASPECTS OUTPUT FILE

*DSSAT Cropping System Model Ver. 4.8.2.000 -release  NOV 03, 2024 05:23:59

*RUN   1        : silt_loam_13in_irr        MZCER048 UNLI2201    1
 MODEL          : MZCER048 - Maize
 EXPERIMENT     : UNLI2201 MZ IRRIGATED MAIZE PRODUCTION
 DATA PATH      :
 TREATMENT  1   : silt_loam_13in_irr        MZCER048
  
!                                                                                                                                                                                                                                      Root Dens. (cm/cm3) by soil depth (cm):
!                                                                                                                                                                                                                                      0-5    5-15   15-23   23-38   38-53   53-61   61-69   69-84   84-99  99-160
@YEAR DOY   DAS   DAP   L#SD   GSTD   LAID   LWAD   SWAD   GWAD   RWAD   VWAD   CWAD   G#AD   GWGD   HIAD   PWAD   P#AD   WSPD   WSGD   NSTD   EWSD  PST1A  PST2A   KSTD   LN%D   SH%D   HIPD   PWDD   PWTD     SLAD   CHTD   CWID   RDPD    RL1D    RL2D    RL3D    RL4D    RL5D    RL6D    RL7D    RL8D    RL9D   RL10D   CDAD   LDAD   SDAD   SNW0C   SNW1C  DTTD
 2022 129     9     0    0.0      0   0.00      0      0      0      0      0      0      0    0.0  0.000      0      0  0.000  0.000  0.000  0.000  0.000  0.000  0.000   0.00   0.00   0.00      0      0      0.0   0.00   0.00   0.05    0.00    0.00    0.00    0.00    0.00    0.00    0.00    0.00    0.00    0.00      0      0      0       0       0 10.11
 2022 130    10     1    0.0      0   0.00      0      0      0      0      0      0      0    0.0  0.000      0      0  0.000  0.000  0.000  0.000  0.000  0.000  0.000   0.00   0.00   0.00      0      0      0.0   0.00   0.00   0.06    0.00    0.00    0.00    0.00    0.00    0.00    0.00    0.00    0.00    0.00      0      0      0       0       0  9.87
 2022 131    11     2    0.0      0   0.00      0      0      0      0      0      0      0    0.0  0.000      0      0  0.000  0.000  0.000  0.000  0.000  0.000  0.000   0.00   0.00   0.00      0      0      0.0   0.00   0.00   0.09    0.00    0.00    0.00    0.00    0.00    0.00    0.00    0.00    0.00    0.00      0      0      0       0       0 16.47
 2022 132    12     3    0.0      0   0.00      0      0      0      0      0      0      0    0.0  0.000      0      0  0.000  0.000  0.000  0.000  0.000  0.000  0.000   0.00   0.00   0.00      0      0      0.0   0.00   0.00   0.11    0.00    0.00    0.00    0.00    0.00    0.00    0.00    0.00    0.00    0.00      0      0      0       0       0 14.94
 2022 133    13     4    0.0      0   0.00      0      0      0      0      0      0      0    0.0  0.000      0      0  0.000  0.000  0.000  0.000  0.000  0.000  0.000   0.00   0.00   0.00      0      0      0.0   0.00   0.00   0.13    0.00    0.00    0.00    0.00    0.00    0.00    0.00    0.00    0.00    0.00      0      0      0       0       0  9.12
 2022 134    14     5    0.0      0   0.00      0      0      0      0      0      0      0    0.0  0.000      0      0  0.000  0.000  0.000  0.000  0.000  0.000  0.000   0.00   0.00   0.00      0      0      0.0   0.00   0.00   0.14    0.00    0.00    0.00    0.00    0.00    0.00    0.00    0.00    0.00    0.00      0      0      0       0       0  8.88
 2022 135    15     6    0.0      0   0.00      0      0      0      0      0      0      0    0.0  0.000      0      0  0.000  0.000  0.000  0.000  0.000  0.000  0.000   0.00   0.00   0.00      0      0      0.0   0.00   0.00   0.15    0.00    0.00    0.00    0.00    0.00    0.00    0.00    0.00    0.00    0.00      0      0      0       0       0  9.67
 2022 136    16     7    0.0      0   0.00      0      0      0      0      0      0      0    0.0  0.000      0      0  0.000  0.000  0.000  0.000  0.000  0.000  0.000   0.00   0.00   0.00      0      0      0.0   0.00   0.00   0.17    0.00    0.00    0.00    0.00    0.00    0.00    0.00    0.00    0.00    0.00      0      0      0       0       0 12.79
 2022 137    17     8    1.0      1   0.00     16     16      0     16     32     32      0    0.0  0.000      0      0  0.000  0.000  0.012  0.000  0.000  0.000  0.000   4.40   0.00   0.00      0      0     23.0   0.00   0.00   0.19    0.32    0.16    0.06    0.00    0.00    0.00    0.00    0.00    0.00    0.00      0      0      0       0       0 15.27
 2022 138    18     9    2.0      1   0.01     16     16      0     17     32     32      0    0.0  0.000      0      0  0.000  0.000  0.011  0.000  0.000  0.000  0.000   4.40   0.00   0.00      0      0     42.5   0.00   0.00   0.20    0.32    0.17    0.06    0.00    0.00    0.00    0.00    0.00    0.00    0.00      0      0      0       0       0 14.32
 2022 139    19    10    2.0      1   0.01     16     16      0     18     32     32      0    0.0  0.000      0      0  0.000  0.000  0.005  0.000  0.000  0.000  0.000   4.40   0.00   0.00      0      0     64.2   0.00   0.00   0.22    0.33    0.17    0.07    0.00    0.00    0.00    0.00    0.00    0.00    0.00      0      0      0       0       0 14.14
 2022 140    20    11    2.0      1   0.01     16     16      0     18     32     32      0    0.0  0.000      0      0  0.000  0.000  0.005  0.000  0.000  0.000  0.000   4.40   0.00   0.00      0      0     66.3   0.00   0.00   0.22    0.33    0.18    0.07    0.00    0.00    0.00    0.00    0.00    0.00    0.00      0      0      0       0       0  1.45
 2022 141    21    12    2.0      1   0.01     16     16      0     18     32     32      0    0.0  0.000      0      0  0.000  0.000  0.004  0.000  0.000  0.000  0.000   4.40   0.00   0.00      0      0     38.3   0.00   0.00   0.22    0.34    0.18    0.07    0.00    0.00    0.00    0.00    0.00    0.00    0.00      0      0      0       0       0  1.03
 2022 142    22    13    2.0      1   0.00     16     16      0     19     32     32      0    0.0  0.000      0      0  0.000  0.000  0.003  0.000  0.000  0.000  0.000   4.40   0.00   0.00      0      0      5.7   0.00   0.00   0.22    0.34    0.18    0.08    0.00    0.00    0.00    0.00    0.00    0.00    0.00      0      0      0       0       0  2.61
 2022 143    23    14    2.0      1   0.00     16     16      0     19     32     32      0    0.0  0.000      0      0  0.000  0.000  0.003  0.000  0.000  0.000  0.000   4.40   0.00   0.00      0      0      8.4   0.00   0.00   0.22    0.34    0.18    0.08    0.00    0.00    0.00    0.00    0.00    0.00    0.00      0      0      0       0       0  1.70
 2022 144    24    15    3.0      1   0.00     16     16      0     19     32     32      0    0.0  0.000      0      0  0.000  0.000  0.002  0.000  0.000  0.000  0.000   4.40   0.00   0.00      0      0     11.4   0.00   0.00   0.23    0.33    0.18    0.08    0.00    0.00    0.00    0.00    0.00    0.00    0.00      0      0      0       0       0  1.94
 2022 145    25    16    3.0      1   0.00     16     16      0     19     32     32      0    0.0  0.000      0      0  0.000  0.000  0.000  0.000  0.000  0.000  0.000   4.40   0.00   0.00      0      0     22.5   0.00   0.00   0.23    0.34    0.18    0.08    0.00    0.00    0.00    0.00    0.00    0.00    0.00      0      0      0       0       0  6.68
 2022 146    26    17    3.0      1   0.01     16     16      0     20     32     32      0    0.0  0.000      0      0  0.000  0.000  0.000  0.000  0.000  0.000  0.000   4.40   0.00   0.00      0      0     39.1   0.00   0.00   0.24    0.34    0.19    0.08    0.00    0.00    0.00    0.00    0.00    0.00    0.00      0      0      0       0       0 10.56
 2022 147    27    18    3.0      1   0.01     16     16      0     21     32     32      0    0.0  0.000      0      0  0.000  0.000  0.000  0.000  0.000  0.000  0.000   4.40   0.00   0.00      0      0     68.1   0.00   0.00   0.25    0.35    0.20    0.09    0.00    0.00    0.00    0.00    0.00    0.00    0.00      0      0      0       0       0 14.98
 2022 148    28    19    4.0      1   0.03     16     16      0     23     32     32      0    0.0  0.000      0      0  0.000  0.000  0.000  0.000  0.000  0.000  0.000   4.40   0.00   0.00      0      0    165.4   0.01   0.00   0.26    0.36    0.21    0.11    0.00    0.00    0.00    0.00    0.00    0.00    0.00      0      0      0       0       0 15.07
 2022 149    29    20    4.0      1   0.04     16     16      0     27     32     32      0    0.0  0.000      0      0  0.000  0.000  0.000  0.000  0.000  0.000  0.000   4.40   0.00   0.00      0      0    274.8   0.02   0.00   0.27    0.40    0.25    0.14    0.01    0.00    0.00    0.00    0.00    0.00    0.00      0      0      0       0       0 14.83
 2022 150    30    21    4.0      1   0.05     19     16      0     31     35     35      0    0.0  0.000      0      0  0.000  0.000  0.000  0.000  0.000  0.000  0.000   4.02   0.00   0.00      0      0    277.3   0.02   0.00   0.28    0.43    0.28    0.17    0.01    0.00    0.00    0.00    0.00    0.00    0.00      0      0      0       0       0  7.12
 2022 151    31    22    4.0      1   0.06     23     16      0     36     39     39      0    0.0  0.000      0      0  0.000  0.000  0.000  0.000  0.000  0.000  0.000   3.67   0.00   0.00      0      0    275.2   0.03   0.00   0.28    0.46    0.31    0.21    0.02    0.00    0.00    0.00    0.00    0.00    0.00      0      0      0       0       0  7.11
 2022 152    32    23    5.0      1   0.07     26     16      0     44     42     42      0    0.0  0.000      0      0  0.000  0.000  0.017  0.000  0.000  0.000  0.000   3.41   0.00   0.00      0      0    271.6   0.03   0.00   0.29    0.51    0.37    0.26    0.03    0.00    0.00    0.00    0.00    0.00    0.00      0      0      0       0       0  7.28
 2022 153    33    24    5.0      1   0.08     32     16      0     53     48     48      0    0.0  0.000      0      0  0.000  0.000  0.050  0.000  0.000  0.000  0.000   3.13   0.00   0.00      0      0    265.0   0.04   0.00   0.29    0.58    0.44    0.34    0.05    0.00    0.00    0.00    0.00    0.00    0.00      0      0      0       0       1  8.55
 2022 154    34    25    5.0      1   0.10     39     16      0     64     55     55      0    0.0  0.000      0      0  0.000  0.000  0.080  0.000  0.000  0.000  0.000   2.86   0.00   0.00      0      0    257.3   0.04   0.00   0.30    0.66    0.52    0.41    0.07    0.00    0.00    0.00    0.00    0.00    0.00      0      0      0       0       1 10.74
 2022 155    35    26    5.0      1   0.12     50     16      0     76     66     66      0    0.0  0.000      0      0  0.000  0.000  0.103  0.000  0.000  0.000  0.000   2.52   0.00   0.00      0      0    247.1   0.05   0.00   0.31    0.74    0.60    0.50    0.09    0.00    0.00    0.00    0.00    0.00    0.00      0      0      0       0       1 14.99
 2022 156    36    27    6.0      1   0.15     63     16      0     85     79     79      0    0.0  0.000      0      0  0.000  0.000  0.132  0.000  0.000  0.000  0.000   2.29   0.00   0.00      0      0    237.0   0.06   0.00   0.32    0.81    0.66    0.56    0.11    0.00    0.00    0.00    0.00    0.00    0.00      0      0      0       0       2 14.32
 2022 157    37    28    6.0      1   0.18     78     16      0    102     94     94      0    0.0  0.000      0      0  0.000  0.000  0.172  0.000  0.000  0.000  0.000   2.06   0.00   0.00      0      0    226.1   0.08   0.00   0.34    0.92    0.78    0.68    0.16    0.00    0.00    0.00    0.00    0.00    0.00      0      0      0       0       2 15.48
 2022 158    38    29    6.0      1   0.19     89     16      0    106    105    105      0    0.0  0.000      0      0  0.000  0.000  0.217  0.000  0.000  0.000  0.000   2.03   0.00   0.00      0      0    217.2   0.08   0.00   0.35    0.94    0.80    0.70    0.17    0.00    0.00    0.00    0.00    0.00    0.00      0      0      0       0       2  9.77
 2022 159    39    30    6.0      1   0.21    103     16      0    128    119    119      0    0.0  0.000      0      0  0.000  0.000  0.296  0.000  0.000  0.000  0.000   1.90   0.00   0.00      0      0    207.8   0.09   0.00   0.37    1.08    0.94    0.84    0.24    0.00    0.00    0.00    0.00    0.00    0.00      0      0      0       0       3 11.83
 2022 160    40    31    7.0      2   0.22    103     16      0    146    119    119      0    0.0  0.000      0      0  0.000  0.000  0.325  0.000  0.000  0.000  0.000   2.06   0.00   0.00      0      0    217.6   0.10   0.00   0.39    1.20    1.06    0.96    0.30    0.00    0.00    0.00    0.00    0.00    0.00      0      0      0       0       4 13.73
 2022 161    41    32    7.0      2   0.23    111     16      0    168    127    127      0    0.0  0.000      0      0  0.000  0.000  0.378  0.000  0.000  0.000  0.000   2.04   0.00   0.00      0      0    209.6   0.10   0.00   0.41    1.32    1.18    1.09    0.38    0.01    0.00    0.00    0.00    0.00    0.00      0      0      0       0       4 15.26
 2022 162    42    33    7.0      2   0.25    126     16      0    191    142    142      0    0.0  0.000      0      0  0.000  0.000  0.309  0.000  0.000  0.000  0.000   1.92   0.00   0.00      0      0    202.3   0.11   0.00   0.43    1.46    1.32    1.23    0.45    0.03    0.00    0.00    0.00    0.00    0.00      0      0      0       0       5 19.67
 2022 163    43    34    8.0      2   0.28    143     16      0    215    159    159      0    0.0  0.000      0      0  0.000  0.000  0.316  0.000  0.000  0.000  0.000   1.81   0.00   0.00      0      0    195.5   0.12   0.00   0.46    1.60    1.46    1.36    0.53    0.06    0.00    0.00    0.00    0.00    0.00      0      0      0       0       6 20.59
 2022 164    44    35    8.0      2   0.31    164     16      0    239    180    180      0    0.0  0.000      0      0  0.000  0.000  0.351  0.000  0.000  0.000  0.000   1.72   0.00   0.00      0      0    188.7   0.13   0.00   0.49    1.73    1.59    1.49    0.60    0.10    0.00    0.00    0.00    0.00    0.00      0      0      0       0       7 23.20
 2022 165    45    36    9.0      2   0.33    180     16      0    266    196    196      0    0.0  0.000      0      0  0.000  0.000  0.375  0.000  0.000  0.000  0.000   1.71   0.00   0.00      0      0    182.4   0.14   0.00   0.51    1.87    1.73    1.64    0.68    0.15    0.00    0.00    0.00    0.00    0.00      0      0      0       0       8 17.50
 2022 166    46    37    9.0      2   0.35    196     16      0    297    212    212      0    0.0  0.000      0      0  0.000  0.000  0.399  0.000  0.000  0.000  0.000   1.71   0.00   0.00      0      0    176.3   0.15   0.00   0.53    2.03    1.89    1.80    0.76    0.22    0.00    0.00    0.00    0.00    0.00      0      0      0       0      10 16.47
 2022 167    47    38    9.0      3   0.36    213     16      0    329    229    229      0    0.0  0.000      0      0  0.000  0.000  0.396  0.000  0.000  0.000  0.000   1.69   0.00   0.00      0      0    168.6   0.15   0.00   0.55    2.19    2.06    1.96    0.86    0.29    0.01    0.00    0.00    0.00    0.00      0      0      0       0      11 16.06
 2022 168    48    39   10.0      3   0.39    240     16      0    357    256    256      0    0.0  0.000      0      0  0.000  0.000  0.386  0.000  0.000  0.000  0.000   1.60   0.00   0.00      0      0    163.6   0.17   0.00   0.57    2.33    2.19    2.10    0.93    0.34    0.03    0.00    0.00    0.00    0.00      0      0      0       0      13 22.37
 2022 169    49    40   10.0      3   0.43    272     17      0    386    289    289      0    0.0  0.000      0      0  0.000  0.000  0.383  0.000  0.000  0.000  0.000   1.49   0.00   0.00      0      0    158.9   0.19   0.00   0.60    2.47    2.34    2.25    1.01    0.40    0.07    0.00    0.00    0.00    0.00      0      0      0       0      15 23.53
 2022 170    50    41   11.0      3   0.47    305     19      0    412    325    325      0    0.0  0.000      0      0  0.000  0.000  0.418  0.000  0.000  0.000  0.000   1.40   0.00   0.00      0      0    154.2   0.20   0.00   0.62    2.46    2.48    2.39    1.09    0.47    0.13    0.00    0.00    0.00    0.00      0      0      0       0      17 23.45
 2022 171    51    42   11.0      3   0.50    335     22      0    432    357    357      0    0.0  0.000      0      0  0.000  0.000  0.461  0.000  0.000  0.000  0.000   1.34   0.00   0.00      0      0    149.3   0.21   0.00   0.65    2.45    2.59    2.50    1.15    0.51    0.16    0.01    0.00    0.00    0.00      0      0      0       0      19 21.30
 2022 172    52    43   11.0      3   0.50    350     24      0    449    373    373      0    0.0  0.000      0      0  0.000  0.000  0.500  0.000  0.000  0.000  0.000   1.35   0.00   0.00      0      0    144.1   0.22   0.00   0.66    2.44    2.68    2.59    1.20    0.55    0.19    0.03    0.00    0.00    0.00      0      0      0       0      21 11.60
 2022 173    53    44   12.0      3   0.51    367     26      0    474    393    393      0    0.0  0.000      0      0  0.000  0.000  0.521  0.000  0.000  0.000  0.000   1.34   0.00   0.00      0      0    139.2   0.22   0.00   0.67    2.42    2.82    2.73    1.28    0.61    0.23    0.07    0.00    0.00    0.00      0      0      0       0      23 11.95
 2022 174    54    45   12.0      3   0.53    396     31      0    504    426    426      0    0.0  0.000      0      0  0.000  0.000  0.507  0.000  0.000  0.000  0.000   1.30   0.00   0.00      0      0    135.2   0.23   0.00   0.69    2.41    2.97    2.88    1.36    0.67    0.28    0.12    0.00    0.00    0.00      0      0      0       0      25 18.63
 2022 175    55    46   12.0      3   0.56    424     37      0    525    461    461      0    0.0  0.000      0      0  0.000  0.000  0.499  0.000  0.000  0.000  0.000   1.25   0.00   0.00      0      0    131.3   0.24   0.00   0.71    2.40    3.08    2.99    1.42    0.72    0.32    0.15    0.00    0.00    0.00      0      0      0       0      28 17.65
 2022 176    56    47   13.0      3   0.56    442     42      0    551    484    484      0    0.0  0.000      0      0  0.000  0.000  0.518  0.000  0.000  0.000  0.000   1.24   0.00   0.00      0      0    127.1   0.24   0.00   0.72    2.38    3.21    3.12    1.49    0.77    0.36    0.20    0.01    0.00    0.00      0      0      0       0      31 12.10
 2022 177    57    48   13.0      3   0.56    453     45      0    577    498    498      0    0.0  0.000      0      0  0.000  0.000  0.538  0.000  0.000  0.000  0.000   1.25   0.00   0.00      0      0    122.7   0.24   0.00   0.73    2.37    3.34    3.26    1.57    0.83    0.40    0.24    0.02    0.00    0.00      0      0      0       0      33  8.11
 2022 178    58    49   13.0      3   0.56    473     51      0    610    524    524      0    0.0  0.000      0      0  0.000  0.000  0.538  0.000  0.000  0.000  0.000   1.23   0.00   0.00      0      0    119.0   0.24   0.00   0.74    2.36    3.51    3.42    1.66    0.90    0.45    0.29    0.03    0.00    0.00      0      0      0       0      36 13.35
 2022 179    59    50   13.0      3   0.57    496     60      0    636    556    556      0    0.0  0.000      0      0  0.000  0.000  0.525  0.000  0.000  0.000  0.000   1.20   0.00   0.00      0      0    115.8   0.25   0.00   0.75    2.35    3.64    3.55    1.73    0.95    0.49    0.33    0.05    0.00    0.00      0      0      0       0      39 15.81
 2022 180    60    51   14.0      3   0.60    528     74      0    654    601    601      0    0.0  0.000      0      0  0.000  0.000  0.521  0.000  0.000  0.000  0.000   1.15   0.00   0.00      0      0    113.2   0.26   0.00   0.77    2.34    3.73    3.64    1.78    0.99    0.52    0.36    0.07    0.00    0.00      0      0      0       0      42 20.10
 2022 181    61    52   14.0      3   0.61    557     89      0    665    646    646      0    0.0  0.000      0      0  0.000  0.000  0.526  0.000  0.000  0.000  0.000   1.11   0.00   0.00      0      0    110.4   0.26   0.00   0.79    2.32    3.78    3.69    1.81    1.01    0.54    0.38    0.08    0.00    0.00      0      0      0       0      46 19.00
 2022 182    62    53   15.0      3   0.62    580    103      0    681    683    683      0    0.0  0.000      0      0  0.000  0.000  0.543  0.000  0.000  0.000  0.000   1.08   0.00   0.00      0      0    107.4   0.27   0.00   0.81    2.31    3.86    3.77    1.85    1.05    0.56    0.41    0.10    0.00    0.00      0      0      0       0      49 16.20
 2022 183    63    54   15.0      3   0.63    600    115      0    703    715    715      0    0.0  0.000      0      0  0.000  0.000  0.556  0.000  0.000  0.000  0.000   1.10   0.00   0.00      0      0    104.3   0.27   0.00   0.82    2.41    3.95    3.86    1.90    1.08    0.59    0.44    0.12    0.00    0.00      0      0      0       0      52 14.15
 2022 184    64    55   15.0      3   0.64    630    137      0    718    767    767      0    0.0  0.000      0      0  0.000  0.000  0.537  0.000  0.000  0.000  0.000   1.07   0.00   0.00      0      0    101.9   0.28   0.00   0.84    2.48    4.00    3.92    1.94    1.11    0.61    0.46    0.13    0.00    0.00      0      0      0       0      56 19.51
 2022 185    65    56   16.0      3   0.66    661    163      0    736    824    824      0    0.0  0.000      0      0  0.000  0.000  0.527  0.000  0.000  0.000  0.000   1.05   0.00   0.00      0      0     99.7   0.28   0.00   0.86    2.56    4.00    3.99    1.97    1.14    0.64    0.48    0.15    0.00    0.00      0      0      0       0      60 19.66
 2022 186    66    57   16.0      3   0.68    693    193      0    749    886    886      0    0.0  0.000      0      0  0.000  0.000  0.529  0.000  0.000  0.000  0.000   1.02   0.00   0.00      0      0     97.6   0.29   0.00   0.87    2.62    4.00    4.00    2.00    1.16    0.65    0.50    0.17    0.00    0.00      0      0      0       0      63 19.88
 2022 187    67    58   17.0      3   0.68    717    219      0    749    936    936      0    0.0  0.000      0      0  0.000  0.000  0.533  0.000  0.000  0.000  0.000   1.01   0.00   0.00      0      0     95.2   0.29   0.00   0.88    2.61    3.99    3.99    2.00    1.16    0.65    0.50    0.17    0.00    0.00      0      0      0       0      67 15.80
 2022 188    68    59   17.0      3   0.70    752    259      0    749   1011   1011      0    0.0  0.000      0      0  0.000  0.000  0.538  0.000  0.000  0.000  0.000   0.98   0.00   0.00      0      0     93.3   0.30   0.00   0.90    2.62    3.99    3.99    2.00    1.16    0.66    0.50    0.17    0.01    0.00      0      0      0       0      71 16.05
 2022 189    69    60   17.0      3   0.72    786    317      0    754   1103   1104      0    0.0  0.000      1      0  0.000  0.000  0.532  0.000  0.000  0.000  0.000   0.94   0.00   0.00      0      1     91.5   0.31   0.00   0.91    2.64    4.00    4.00    2.01    1.17    0.66    0.51    0.18    0.01    0.00      0      0      0       0      74 17.20
 2022 190    70    61   18.0      3   0.73    816    381      0    758   1198   1201      0    0.0  0.000      3      0  0.000  0.000  0.538  0.000  0.000  0.000  0.000   0.90   0.00   0.00      0      3     89.4   0.31   0.00   0.93    2.66    4.00    4.00    2.01    1.18    0.67    0.52    0.18    0.02    0.00      0      0      0       0      78 19.62
 2022 191    71    62   18.0      3   0.74    843    447      0    762   1290   1297      0    0.0  0.000      7      0  0.000  0.000  0.548  0.000  0.000  0.000  0.000   0.88   0.00   0.01      0      7     87.3   0.32   0.00   0.94    2.67    4.00    4.00    2.02    1.18    0.67    0.52    0.19    0.03    0.00      0      0      0       0      82 21.24
 2022 192    72    63   18.0      3   0.73    858    485      0    786   1343   1353      0    0.0  0.000     11      0  0.000  0.000  0.560  0.000  0.000  0.000  0.000   0.88   0.00   0.01      0     11     84.5   0.32   0.00   0.95    2.77    4.00    4.00    2.07    1.22    0.70    0.55    0.21    0.06    0.00      0      0      0       0      86 13.40
 2022 193    73    64   19.0      3   0.71    871    521      0    807   1392   1407      0    0.0  0.000     15      0  0.000  0.000  0.568  0.000  0.000  0.000  0.000   0.88   0.00   0.01      0     15     81.8   0.32   0.00   0.97    2.85    4.00    4.00    2.11    1.25    0.72    0.58    0.23    0.10    0.00      0      0      0       0      90 13.55
 2022 194    74    65   19.0      3   0.71    889    573      0    813   1463   1484      0    0.0  0.000     22      0  0.000  0.000  0.555  0.000  0.000  0.000  0.000   0.87   0.00   0.01      0     22     79.5   0.32   0.00   0.98    2.88    4.00    4.00    2.12    1.26    0.73    0.59    0.24    0.12    0.00      0      0      0       0      94 18.69
 2022 195    75    66   19.0      3   0.71    910    634      0    823   1543   1577      0    0.0  0.000     33      0  0.000  0.000  0.539  0.000  0.000  0.000  0.000   0.86   0.00   0.02      0     33     77.6   0.32   0.00   1.00    2.91    4.00    4.00    2.13    1.28    0.74    0.60    0.25    0.13    0.00      0      0      0       0      98 21.33
 2022 196    76    67   20.0      3   0.70    926    681      0    835   1607   1656      0    0.0  0.000     48      0  0.000  0.000  0.533  0.000  0.000  0.000  0.000   0.86   0.00   0.03      0     48     75.5   0.32   0.00   1.01    2.96    4.00    4.00    2.16    1.30    0.76    0.61    0.26    0.15    0.00      0      0      0       0     102 18.04
 2022 197    77    68   20.0      3   0.69    941    726      0    835   1667   1729      0    0.0  0.000     61      0  0.000  0.000  0.538  0.000  0.000  0.000  0.000   0.85   0.00   0.04      0     61     73.3   0.32   0.00   1.02    2.96    4.00    4.00    2.16    1.30    0.76    0.61    0.26    0.15    0.00      0      0      0       0     106 19.06
 2022 198    78    69   20.0      3   0.68    956    760      0    848   1716   1803      0    0.0  0.000     87      0  0.000  0.000  0.538  0.000  0.000  0.000  0.000   0.85   0.00   0.05      0     87     71.3   0.32   0.00   1.04    3.02    4.00    4.00    2.19    1.32    0.78    0.63    0.27    0.16    0.00      0      0      0       0     110 17.55
 2022 199    79    70   20.0      3   0.68    973    794      0    857   1767   1889      0    0.0  0.000    121      0  0.000  0.000  0.536  0.000  0.000  0.000  0.000   0.85   0.00   0.06      0    121     69.5   0.32   0.00   1.05    3.06    4.00    4.00    2.20    1.33    0.79    0.64    0.28    0.17    0.00      0      0      0       0     115 20.09
 2022 200    80    71   20.0      3   0.67    988    810      0    874   1797   1962      0    0.0  0.000    165      0  0.000  0.000  0.531  0.000  0.000  0.000  0.000   0.86   0.00   0.08      0    165     67.7   0.32   0.00   1.06    3.13    4.00    4.00    2.24    1.36    0.81    0.67    0.30    0.18    0.01      0      0      0       0     119 16.90
 2022 201    81    72   20.0      3   0.66   1002    816      0    891   1818   2031      0    0.0  0.000    214      0  0.000  0.000  0.529  0.000  0.000  0.000  0.000   0.87   0.00   0.11      0    214     65.9   0.32   0.00   1.07    3.11    4.00    4.00    2.28    1.39    0.83    0.69    0.32    0.20    0.02      0      0      0       0     123 15.69
 2022 202    82    73   20.0      3   0.66   1019    832      0    896   1851   2117      0    0.0  0.000    266      0  0.000  0.000  0.520  0.000  0.000  0.000  0.000   0.88   0.00   0.13      0    266     64.4   0.32   0.00   1.08    3.13    4.00    4.00    2.29    1.40    0.84    0.70    0.33    0.20    0.02      0      0      0       0     128 18.78
 2022 203    83    74   20.0      4   0.63   1005    920      0    896   1925   2207      0    0.0  0.000    282      0  0.000  0.000  0.504  0.000  0.000  0.000  0.000   0.87   0.00   0.13      0    282     62.9   0.32   0.00   1.10    3.13    4.00    4.00    2.28    1.40    0.84    0.70    0.33    0.20    0.03      0      0      0       0     132 19.02
 2022 204    84    75   20.0      4   0.61    990    993      0    895   1983   2281      0    0.0  0.000    298      0  0.000  0.000  0.489  0.000  0.000  0.000  0.000   0.87   0.00   0.13      0    298     61.5   0.32   0.00   1.11    3.13    3.99    3.99    2.28    1.40    0.84    0.70    0.33    0.20    0.03      0      0      0       0     137 21.40
 2022 205    85    76   20.0      4   0.59    973   1067      0    894   2041   2356      0    0.0  0.000    315      0  0.000  0.000  0.491  0.000  0.000  0.000  0.000   0.87   0.00   0.13      0    315     60.2   0.32   0.00   1.12    3.13    3.99    3.99    2.28    1.40    0.84    0.70    0.33    0.20    0.03      0      0      0       0     141 15.00
 2022 206    86    77   20.0      4   0.56    956   1083      0    891   2039   2359      0    0.0  0.000    319      0  0.000  0.000  0.489  0.000  0.000  0.000  0.000   0.89   0.00   0.14      0    319     59.0   0.32   0.00   1.13    3.12    3.97    3.97    2.27    1.39    0.84    0.70    0.33    0.20    0.03      0      0      0       0     146 12.10
 2022 207    87    78   20.0      4   0.54    938   1126      0    889   2064   2394      0    0.0  0.000    330      0  0.000  0.000  0.487  0.000  0.000  0.000  0.000   0.89   0.00   0.14      0    330     57.9   0.32   0.00   1.14    3.11    3.96    3.96    2.26    1.39    0.83    0.70    0.33    0.20    0.03      0      0      0       0     150 14.65
 2022 208    88    79   20.0      4   0.52    918   1171      0    887   2090   2433      0    0.0  0.000    344      0  0.000  0.000  0.467  0.000  0.000  0.000  0.000   0.90   0.00   0.14      0    344     57.0   0.32   0.00   1.15    3.10    3.95    3.95    2.25    1.38    0.83    0.69    0.33    0.20    0.03      0      0      0       0     154 13.20