*SOIL WATER DAILY OUTPUT FILE

*DSSAT Cropping System Model Ver. 4.8.2.000 -release  JUN 02, 2025 20:18:09

*RUN   1        : farm_23                   MZCER048 UNLI2309    1
 MODEL          : MZCER048 - Maize
 EXPERIMENT     : UNLI2309 MZ PIO1366
 DATA PATH      :
 TREATMENT  1   : farm_23                   MZCER048
  
!                                                                                                                                   Soil water content (mm3/mm3) by soil depth (cm):
!                                                                                                                                   0-5    5-15   15-23   23-31   31-46   46-61   61-91  91-106 106-122 122-152 152-167 167-183
@YEAR DOY   DAS    SWTD    SWXD    ROFC    DRNC    PREC    IR#C    IRRC   LATFC    DTWT    MWTD    TDFD    TDFC    ROFD    ROSD    SW1D    SW2D    SW3D    SW4D    SW5D    SW6D    SW7D    SW8D    SW9D   SW10D   SW11D   SW12D
 2020 109     0     425     207       0       0       0       0       0       0     183    0.87     0.0     0.0    0.00    0.00   0.289   0.289   0.289   0.289   0.255   0.255   0.220   0.210   0.210   0.210   0.210   0.210
 2020 110     1     426     208       0       0       2       0       0       0     183    1.17     0.0     0.0    0.00    0.00   0.306   0.289   0.289   0.289   0.255   0.255   0.220   0.210   0.210   0.210   0.210   0.210
 2020 111     2     426     208       0       0       2       0       0       0     183    1.39     0.0     0.0    0.00    0.00   0.302   0.291   0.289   0.289   0.255   0.255   0.220   0.210   0.210   0.210   0.210   0.210
 2020 112     3     426     208       0       0       2       0       0       0     183    0.27     0.0     0.0    0.00    0.00   0.299   0.292   0.290   0.289   0.255   0.255   0.220   0.210   0.210   0.210   0.210   0.210
 2020 113     4     426     208       0       0       2       0       0       0     183    0.05     0.0     0.0    0.00    0.00   0.297   0.293   0.290   0.289   0.255   0.255   0.220   0.210   0.210   0.210   0.210   0.210
 2020 114     5     426     208       0       0       3       0       0       0     183    0.96     0.0     0.0    0.00    0.00   0.293   0.293   0.290   0.290   0.255   0.255   0.220   0.210   0.210   0.210   0.210   0.210
 2020 115     6     429     211       0       0       9       0       0       0     183    2.77     0.0     0.0    0.00    0.00   0.344   0.299   0.290   0.290   0.255   0.255   0.220   0.210   0.210   0.210   0.210   0.210
 2020 116     7     429     211       0       0       9       0       0       0     183    0.80     0.0     0.0    0.00    0.00   0.326   0.307   0.292   0.290   0.255   0.255   0.220   0.210   0.210   0.210   0.210   0.210
 2020 117     8     429     211       0       0       9       0       0       0     183    0.15     0.0     0.0    0.00    0.00   0.319   0.308   0.294   0.291   0.255   0.255   0.220   0.210   0.210   0.210   0.210   0.210
 2020 118     9     429     211       0       0       9       0       0       0     183    0.03     0.0     0.0    0.00    0.00   0.312   0.308   0.296   0.291   0.255   0.255   0.220   0.210   0.210   0.210   0.210   0.210
 2020 119    10     429     210       0       0       9       0       0       0     183    0.01     0.0     0.0    0.00    0.00   0.305   0.307   0.297   0.292   0.255   0.255   0.220   0.210   0.210   0.210   0.210   0.210
 2020 120    11     429     210       0       0       9       0       0       0     183    0.00     0.0     0.0    0.00    0.00   0.300   0.305   0.297   0.293   0.255   0.255   0.220   0.210   0.210   0.210   0.210   0.210
 2020 121    12     428     210       0       0       9       0       0       0     183    0.00     0.0     0.0    0.00    0.00   0.297   0.304   0.298   0.293   0.255   0.255   0.220   0.210   0.210   0.210   0.210   0.210
 2020 122    13     428     209       0       0       9       0       0       0     183    0.00     0.0     0.0    0.00    0.00   0.293   0.302   0.298   0.294   0.256   0.255   0.220   0.210   0.210   0.210   0.210   0.210
 2020 123    14     429     210       0       0      14       0       0       0     183    3.50     0.0     0.0    0.00    0.00   0.313   0.300   0.297   0.294   0.256   0.255   0.220   0.210   0.210   0.210   0.210   0.210
 2020 124    15     439     221       0       0      24       0       0       0     183    1.51     0.0     0.0    0.00    0.00   0.411   0.342   0.313   0.295   0.256   0.255   0.220   0.210   0.210   0.210   0.210   0.210
 2020 125    16     458     239       0       0      46       0       0       0     183    3.58     0.0     0.0    0.00    0.00   0.415   0.401   0.385   0.352   0.269   0.255   0.220   0.210   0.210   0.210   0.210   0.210
 2020 126    17     458     239       0       0      46       0       0       0     183    1.50     0.0     0.0    0.00    0.00   0.366   0.360   0.354   0.337   0.295   0.295   0.221   0.210   0.210   0.210   0.210   0.210
 2020 127    18     458     239       0       0      46       0       0       0     183    0.29     0.0     0.0    0.00    0.00   0.346   0.344   0.341   0.335   0.295   0.294   0.234   0.210   0.210   0.210   0.210   0.210
 2020 128    19     458     239       0       0      46       0       0       0     183    0.06     0.0     0.0    0.00    0.00   0.337   0.337   0.336   0.335   0.295   0.293   0.239   0.210   0.210   0.210   0.210   0.210
 2020 129    20     457     239       0       0      46       0       0       0     183    0.01     0.0     0.0    0.00    0.00   0.330   0.335   0.334   0.335   0.295   0.294   0.241   0.211   0.210   0.210   0.210   0.210
 2020 130    21     457     239       0       0      46       0       0       0     183    0.00     0.0     0.0    0.00    0.00   0.327   0.334   0.334   0.335   0.295   0.293   0.241   0.211   0.210   0.210   0.210   0.210
 2020 131    22     457     238       0       0      46       0       0       0     183    0.00     0.0     0.0    0.00    0.00   0.326   0.333   0.334   0.335   0.295   0.293   0.241   0.211   0.210   0.210   0.210   0.210
 2020 132    23     457     238       0       0      46       0       0       0     183    0.00     0.0     0.0    0.00    0.00   0.328   0.331   0.334   0.335   0.295   0.292   0.241   0.212   0.210   0.210   0.210   0.210
 2020 133    24     457     238       0       0      46       0       0       0     183    0.00     0.0     0.0    0.00    0.00   0.328   0.331   0.333   0.335   0.295   0.292   0.241   0.212   0.210   0.210   0.210   0.210
 2020 134    25     456     238       0       0      46       0       0       0     183    0.00     0.0     0.0    0.00    0.00   0.326   0.331   0.332   0.334   0.295   0.292   0.241   0.213   0.210   0.210   0.210   0.210
 2020 135    26     456     238       0       0      46       0       0       0     183    0.00     0.0     0.0    0.00    0.00   0.322   0.330   0.332   0.334   0.295   0.291   0.241   0.213   0.210   0.210   0.210   0.210
 2020 136    27     469     251       0       0      63       0       0       0     183    3.50     0.0     0.0    0.00    0.00   0.415   0.366   0.358   0.348   0.299   0.296   0.242   0.213   0.210   0.210   0.210   0.210
 2020 137    28     479     260       0       0      72       0       0       0     183    1.51     0.0     0.0    0.00    0.00   0.415   0.384   0.381   0.368   0.307   0.302   0.249   0.214   0.210   0.210   0.210   0.210
 2020 138    29     479     260       0       0      72       0       0       0     183    0.29     0.0     0.0    0.00    0.00   0.366   0.353   0.352   0.347   0.299   0.297   0.257   0.246   0.237   0.210   0.210   0.210
 2020 139    30     479     260       0       0      72       0       0       0     183    0.06     0.0     0.0    0.00    0.00   0.345   0.341   0.341   0.339   0.296   0.297   0.257   0.245   0.245   0.220   0.210   0.210
 2020 140    31     479     260       0       0      72       0       0       0     183    0.01     0.0     0.0    0.00    0.00   0.332   0.336   0.336   0.335   0.296   0.297   0.257   0.245   0.244   0.225   0.210   0.210
 2020 141    32     478     260       0       0      72       0       0       0     183    0.00     0.0     0.0    0.00    0.00   0.321   0.334   0.334   0.335   0.296   0.297   0.257   0.245   0.245   0.226   0.210   0.210
 2020 142    33     478     259       0       0      74       0       0       0     183    1.90     0.0     0.0    0.00    0.00   0.326   0.331   0.334   0.335   0.296   0.297   0.257   0.245   0.244   0.226   0.211   0.210
 2020 143    34     478     259       0       0      74       0       0       0     183    0.65     0.0     0.0    0.00    0.00   0.329   0.331   0.333   0.335   0.296   0.297   0.257   0.245   0.244   0.226   0.211   0.210
 2020 144    35     478     260       0       0      78       0       0       0     183    3.26     0.0     0.0    0.00    0.00   0.333   0.331   0.332   0.335   0.296   0.297   0.257   0.245   0.243   0.226   0.211   0.210
 2020 145    36     478     260       0       0      78       0       0       0     183    0.63     0.0     0.0    0.00    0.00   0.332   0.331   0.332   0.335   0.296   0.297   0.257   0.245   0.243   0.226   0.212   0.210
 2020 146    37     488     269       0       0      91       0       0       0     183    3.53     0.0     0.0    0.00    0.00   0.415   0.355   0.349   0.343   0.298   0.298   0.260   0.245   0.243   0.226   0.212   0.210
 2020 147    38     488     269       0       0      91       0       0       0     183    0.68     0.0     0.0    0.00    0.00   0.366   0.342   0.339   0.337   0.296   0.295   0.260   0.245   0.245   0.244   0.212   0.210
 2020 148    39     488     269       0       0      91       0       0       0     183    0.13     0.0     0.0    0.00    0.00   0.346   0.336   0.335   0.335   0.296   0.295   0.260   0.245   0.245   0.245   0.224   0.210
 2020 149    40     487     269       0       0      91       0       0       0     183    0.03     0.0     0.0    0.00    0.00   0.330   0.334   0.335   0.335   0.296   0.295   0.260   0.245   0.245   0.245   0.228   0.211
 2020 150    41     487     268       0       0      91       0       0       0     183    0.00     0.0     0.0    0.00    0.00   0.320   0.333   0.335   0.335   0.296   0.295   0.260   0.245   0.245   0.244   0.228   0.211
 2020 151    42     486     268       0       0      92       0       0       0     183    0.76     0.0     0.0    0.00    0.00   0.315   0.330   0.334   0.335   0.296   0.295   0.260   0.245   0.245   0.244   0.228   0.212
 2020 152    43     486     268       0       0      92       0       0       0     183    0.15     0.0     0.0    0.00    0.00   0.321   0.328   0.332   0.334   0.296   0.295   0.260   0.245   0.245   0.244   0.227   0.212
 2020 153    44     485     267       0       0      92       0       0       0     183    0.03     0.0     0.0    0.00    0.00   0.314   0.327   0.331   0.333   0.296   0.295   0.260   0.245   0.245   0.244   0.227   0.212
 2020 154    45     485     266       0       0      92       0       0       0     183    0.01     0.0     0.0    0.00    0.00   0.308   0.325   0.329   0.332   0.296   0.295   0.260   0.245   0.245   0.244   0.227   0.213
 2020 155    46     484     265       0       0      92       0       0       0     183    0.00     0.0     0.0    0.00    0.00   0.303   0.322   0.328   0.330   0.295   0.295   0.260   0.245   0.245   0.243   0.228   0.213
 2020 156    47     483     264       0       0      92       0       0       0     183    0.00     0.0     0.0    0.00    0.00   0.298   0.319   0.326   0.328   0.295   0.295   0.260   0.245   0.245   0.243   0.228   0.214
 2020 157    48     482     263       0       0      92       0       0       0     183    0.00     0.0     0.0    0.00    0.00   0.292   0.316   0.323   0.326   0.294   0.295   0.260   0.245   0.245   0.243   0.228   0.214
 2020 158    49     481     262       0       0      93       0       0       0     183    1.24     0.0     0.0    0.00    0.00   0.289   0.312   0.321   0.324   0.293   0.295   0.260   0.245   0.245   0.243   0.228   0.215
 2020 159    50     480     261       0       0      93       0       0       0     183    0.24     0.0     0.0    0.00    0.00   0.294   0.309   0.318   0.322   0.291   0.295   0.260   0.245   0.245   0.243   0.228   0.215
 2020 160    51     479     260       0       0      96       0       0       0     183    2.42     0.0     0.0    0.00    0.00   0.292   0.306   0.315   0.319   0.289   0.295   0.260   0.245   0.245   0.242   0.228   0.215
 2020 161    52     479     261       0       0      98       0       0       0     183    3.04     0.0     0.0    0.00    0.00   0.310   0.305   0.314   0.319   0.288   0.295   0.260   0.245   0.245   0.242   0.228   0.216
 2020 162    53     478     260       0       0      98       0       0       0     183    0.58     0.0     0.0    0.00    0.00   0.306   0.305   0.312   0.316   0.286   0.294   0.260   0.245   0.245   0.242   0.228   0.216
 2020 163    54     477     259       0       0      98       0       0       0     183    0.11     0.0     0.0    0.00    0.00   0.303   0.304   0.309   0.314   0.285   0.292   0.260   0.245   0.244   0.242   0.228   0.216
 2020 164    55     476     257       0       0      98       0       0       0     183    0.02     0.0     0.0    0.00    0.00   0.295   0.302   0.307   0.311   0.282   0.291   0.260   0.245   0.244   0.242   0.228   0.217
 2020 165    56     474     255       0       0      98       0       0       0     183    0.00     0.0     0.0    0.00    0.00   0.285   0.299   0.304   0.309   0.280   0.289   0.260   0.245   0.244   0.242   0.228   0.217
 2020 166    57     472     253       0       0      98       0       0       0     183    0.00     0.0     0.0    0.00    0.00   0.278   0.296   0.302   0.306   0.278   0.287   0.259   0.245   0.244   0.241   0.228   0.217
 2020 167    58     470     251       0       0      98       0       0       0     183    0.00     0.0     0.0    0.00    0.00   0.270   0.292   0.299   0.303   0.275   0.285   0.259   0.245   0.244   0.241   0.228   0.218
 2020 168    59     468     249       0       0      98       0       0       0     183    0.00     0.0     0.0    0.00    0.00   0.262   0.287   0.295   0.300   0.272   0.283   0.258   0.245   0.244   0.241   0.228   0.218
 2020 169    60     465     247       0       0      98       0       0       0     183    0.00     0.0     0.0    0.00    0.00   0.255   0.282   0.291   0.297   0.269   0.281   0.258   0.245   0.244   0.241   0.228   0.218
 2020 170    61     463     245       0       0      98       0       0       0     183    0.00     0.0     0.0    0.00    0.00   0.252   0.279   0.289   0.294   0.267   0.279   0.257   0.245   0.244   0.241   0.228   0.219
 2020 171    62     462     244       0       0     100       0       0       0     183    2.19     0.0     0.0    0.00    0.00   0.252   0.276   0.286   0.292   0.266   0.278   0.256   0.245   0.244   0.241   0.228   0.219
 2020 172    63     460     242       0       0     100       0       0       0     183    0.42     0.0     0.0    0.00    0.00   0.253   0.272   0.283   0.289   0.263   0.276   0.255   0.245   0.244   0.241   0.228   0.219
 2020 173    64     458     240       0       0     100       0       0       0     183    0.08     0.0     0.0    0.00    0.00   0.253   0.269   0.280   0.286   0.261   0.274   0.254   0.245   0.244   0.241   0.228   0.219
 2020 174    65     456     238       0       0     102       0       0       0     183    2.20     0.0     0.0    0.00    0.00   0.249   0.266   0.277   0.283   0.258   0.271   0.253   0.244   0.244   0.240   0.228   0.220
 2020 175    66     454     236       0       0     102       0       0       0     183    0.42     0.0     0.0    0.00    0.00   0.248   0.262   0.274   0.280   0.256   0.269   0.252   0.244   0.244   0.240   0.228   0.220
 2020 176    67     452     234       0       0     102       0       0       0     183    0.08     0.0     0.0    0.00    0.00   0.246   0.259   0.270   0.277   0.253   0.267   0.250   0.244   0.244   0.240   0.228   0.220
 2020 177    68     450     231       0       0     104       0       0       0     183    1.73     0.0     0.0    0.00    0.00   0.241   0.256   0.267   0.274   0.250   0.265   0.249   0.244   0.244   0.240   0.228   0.220
 2020 178    69     447     229       0       0     104       0       0       0     183    0.62     0.0     0.0    0.00    0.00   0.239   0.252   0.263   0.270   0.247   0.262   0.247   0.244   0.244   0.240   0.228   0.221
 2020 179    70     445     227       0       0     104       0       0       0     183    0.12     0.0     0.0    0.00    0.00   0.238   0.249   0.260   0.267   0.244   0.259   0.245   0.243   0.243   0.240   0.228   0.221
 2020 180    71     442     224       0       0     104       0       0       0     183    0.02     0.0     0.0    0.00    0.00   0.229   0.245   0.256   0.263   0.241   0.257   0.244   0.243   0.243   0.240   0.229   0.221
 2020 181    72     439     221       0       0     104       0       0       0     183    0.00     0.0     0.0    0.00    0.00   0.220   0.241   0.252   0.259   0.237   0.254   0.242   0.243   0.243   0.240   0.229   0.221
 2020 182    73     437     218       0       0     104       0       0       0     183    0.00     0.0     0.0    0.00    0.00   0.213   0.238   0.249   0.256   0.235   0.251   0.240   0.242   0.243   0.240   0.229   0.222
 2020 183    74     434     216       0       0     104       0       0       0     183    0.00     0.0     0.0    0.00    0.00   0.206   0.234   0.246   0.253   0.232   0.249   0.238   0.242   0.243   0.239   0.229   0.222
 2020 184    75     432     213       0       0     104       0       0       0     183    0.00     0.0     0.0    0.00    0.00   0.201   0.231   0.243   0.250   0.229   0.247   0.237   0.242   0.243   0.239   0.229   0.222
 2020 185    76     429     210       0       0     104       0       0       0     183    0.00     0.0     0.0    0.00    0.00   0.195   0.227   0.239   0.246   0.226   0.244   0.235   0.241   0.243   0.239   0.229   0.222
 2020 186    77     426     208       0       0     104       0       0       0     183    0.00     0.0     0.0    0.00    0.00   0.189   0.222   0.235   0.242   0.223   0.241   0.233   0.241   0.242   0.239   0.229   0.222
 2020 187    78     423     205       0       0     104       0       0       0     183    0.00     0.0     0.0    0.00    0.00   0.184   0.219   0.232   0.239   0.220   0.239   0.231   0.240   0.242   0.239   0.229   0.223
 2020 188    79     421     202       0       0     104       0       0       0     183    0.00     0.0     0.0    0.00    0.00   0.178   0.215   0.228   0.236   0.217   0.236   0.230   0.240   0.242   0.239   0.229   0.223
 2020 189    80     418     199       0       0     104       0       0       0     183    0.00     0.0     0.0    0.00    0.00   0.171   0.212   0.224   0.232   0.213   0.233   0.228   0.239   0.242   0.239   0.229   0.223
 2020 190    81     415     197       0       0     108       0       0       0     183    3.14     0.0     0.0    0.00    0.00   0.169   0.209   0.221   0.228   0.210   0.230   0.226   0.239   0.242   0.239   0.229   0.223
 2020 191    82     428     210       0       0     123       0       0       0     183    0.97     0.0     0.0    0.00    0.00   0.396   0.243   0.217   0.225   0.207   0.228   0.224   0.238   0.241   0.239   0.229   0.223
 2020 192    83     426     207       0       0     123       0       0       0     183    0.19     0.0     0.0    0.00    0.00   0.339   0.265   0.217   0.222   0.205   0.226   0.222   0.238   0.241   0.239   0.229   0.224
 2020 193    84     424     205       0       0     123       0       0       0     183    0.04     0.0     0.0    0.00    0.00   0.312   0.270   0.218   0.220   0.202   0.223   0.221   0.237   0.241   0.239   0.229   0.224
 2020 194    85     421     203       0       0     123       0       0       0     183    0.01     0.0     0.0    0.00    0.00   0.294   0.269   0.219   0.218   0.200   0.222   0.220   0.237   0.241   0.238   0.229   0.224
 2020 195    86     448     230       0       0     155       0       0       0     183    3.50     0.0     0.0    0.00    0.00   0.401   0.397   0.337   0.222   0.198   0.220   0.218   0.236   0.240   0.238   0.229   0.224
 2020 196    87     447     228       0       0     155       0       0       0     183    1.58     0.0     0.0    0.00    0.00   0.358   0.357   0.320   0.308   0.197   0.218   0.217   0.236   0.240   0.238   0.229   0.224
 2020 197    88     445     227       0       0     155       0       0       0     183    0.30     0.0     0.0    0.00    0.00   0.341   0.338   0.330   0.320   0.197   0.217   0.216   0.235   0.240   0.238   0.230   0.224
 2020 198    89     443     225       0       0     155       0       0       0     183    0.06     0.0     0.0    0.00    0.00   0.330   0.332   0.328   0.319   0.197   0.215   0.215   0.235   0.240   0.238   0.230   0.225
 2020 199    90     441     222       0       0     155       0       0       0     183    0.01     0.0     0.0    0.00    0.00   0.320   0.328   0.324   0.314   0.198   0.213   0.213   0.234   0.239   0.238   0.230   0.225
 2020 200    91     439     221       0       0     155       0       0       0     183    0.00     0.0     0.0    0.00    0.00   0.316   0.324   0.320   0.310   0.199   0.212   0.212   0.234   0.239   0.238   0.230   0.225
 2020 201    92     437     219       0       0     155       0       0       0     183    0.00     0.0     0.0    0.00    0.00   0.310   0.320   0.316   0.307   0.199   0.210   0.211   0.234   0.239   0.238   0.230   0.225
 2020 202    93     435     217       0       0     156       0       0       0     183    0.29     0.0     0.0    0.00    0.00   0.305   0.316   0.313   0.303   0.199   0.209   0.210   0.233   0.239   0.238   0.230   0.225
 2020 203    94     434     215       0       0     156       0       0       0     183    0.05     0.0     0.0    0.00    0.00   0.303   0.312   0.309   0.299   0.199   0.208   0.209   0.233   0.238   0.238   0.230   0.225
 2020 204    95     432     213       0       0     156       0       0       0     183    0.01     0.0     0.0    0.00    0.00   0.296   0.308   0.305   0.296   0.199   0.206   0.208   0.232   0.238   0.237   0.230   0.226
 2020 205    96     430     212       0       0     156       0       0       0     183    0.00     0.0     0.0    0.00    0.00   0.291   0.304   0.302   0.293   0.199   0.205   0.207   0.232   0.238   0.237   0.230   0.226
 2020 206    97     433     214       0       0     164       0       0       0     183    3.50     0.0     0.0    0.00    0.00   0.349   0.314   0.299   0.289   0.199   0.204   0.206   0.231   0.237   0.237   0.230   0.226
 2020 207    98     446     227       0       0     178       0       0       0     183    0.67     0.0     0.0    0.00    0.00   0.405   0.369   0.347   0.308   0.199   0.203   0.205   0.231   0.237   0.237   0.230   0.226
 2020 208    99     445     227       0       0     178       0       0       0     183    0.13     0.0     0.0    0.00    0.00   0.361   0.347   0.332   0.334   0.220   0.203   0.205   0.230   0.237   0.237   0.230   0.226
 2020 209   100     444     225       0       0     178       0       0       0     183    0.02     0.0     0.0    0.00    0.00   0.337   0.337   0.332   0.327   0.232   0.202   0.204   0.230   0.237   0.237   0.230   0.226
 2020 210   101     442     223       0       0     178       0       0       0     183    0.00     0.0     0.0    0.00    0.00   0.324   0.333   0.330   0.325   0.233   0.201   0.203   0.230   0.236   0.237   0.230   0.226
 2020 211   102     472     254       0       0     213       0       0       0     183    3.50     0.0     0.0    0.00    0.00   0.409   0.401   0.402   0.395   0.287   0.201   0.202   0.229   0.236   0.237   0.230   0.227
 2020 212   103     474     255       0       0     216       0       0       0     183    1.70     0.0     0.0    0.00    0.00   0.388   0.372   0.390   0.390   0.308   0.227   0.202   0.229   0.236   0.237   0.230   0.227
 2020 213   104     473     254       0       0     216       0       0       0     183    0.33     0.0     0.0    0.00    0.00   0.354   0.347   0.354   0.355   0.296   0.295   0.204   0.229   0.236   0.237   0.230   0.227
 2020 214   105     472     253       0       0     218       0       0       0     183    2.44     0.0     0.0    0.00    0.00   0.338   0.340   0.346   0.349   0.299   0.296   0.207   0.228   0.235   0.237   0.230   0.227
 2020 215   106     471     252       0       0     218       0       0       0     183    0.47     0.0     0.0    0.00    0.00   0.334   0.335   0.337   0.338   0.295   0.294   0.215   0.228   0.235   0.236   0.230   0.227
 2020 216   107     470     251       0       0     218       0       0       0     183    0.09     0.0     0.0    0.00    0.00   0.333   0.334   0.334   0.334   0.294   0.292   0.217   0.228   0.235   0.236   0.230   0.227
 2020 217   108     469     251       0       0     218       0       0       0     183    0.02     0.0     0.0    0.00    0.00   0.327   0.333   0.333   0.333   0.293   0.291   0.217   0.228   0.235   0.236   0.230   0.227
 2020 218   109     468     249       0       0     218       0       0       0     183    0.00     0.0     0.0    0.00    0.00   0.320   0.330   0.331   0.332   0.292   0.289   0.217   0.227   0.234   0.236   0.230   0.227
 2020 219   110     466     248       0       0     218       0       0       0     183    0.00     0.0     0.0    0.00    0.00   0.315   0.327   0.330   0.330   0.291   0.287   0.217   0.227   0.234   0.236   0.231   0.227
 2020 220   111     465     247       0       0     218       0       0       0     183    0.00     0.0     0.0    0.00    0.00   0.309   0.325   0.328   0.328   0.289   0.286   0.217   0.227   0.234   0.236   0.231   0.228
 2020 221   112     464     246       0       0     221       0       0       0     183    2.19     0.0     0.0    0.00    0.00   0.309   0.322   0.326   0.327   0.288   0.284   0.217   0.227   0.234   0.236   0.231   0.228
 2020 222   113     463     245       0       0     221       0       0       0     183    0.42     0.0     0.0    0.00    0.00   0.313   0.319   0.324   0.325   0.287   0.283   0.217   0.227   0.234   0.236   0.231   0.228
 2020 223   114     462     244       0       0     221       0       0       0     183    0.08     0.0     0.0    0.00    0.00   0.312   0.318   0.322   0.324   0.286   0.282   0.217   0.227   0.233   0.236   0.231   0.228
 2020 224   115     461     243       0       0     221       0       0       0     183    0.02     0.0     0.0    0.00    0.00   0.306   0.317   0.321   0.322   0.285   0.281   0.217   0.226   0.233   0.236   0.231   0.228
 2020 225   116     460     242       0       0     221       0       0       0     183    0.00     0.0     0.0    0.00    0.00   0.300   0.315   0.320   0.321   0.284   0.280   0.217   0.226   0.233   0.235   0.231   0.228
 2020 226   117     459     241       0       0     221       0       0       0     183    0.00     0.0     0.0    0.00    0.00   0.294   0.313   0.318   0.319   0.282   0.278   0.217   0.226   0.233   0.235   0.231   0.228
 2020 227   118     458     239       0       0     221       0       0       0     183    0.00     0.0     0.0    0.00    0.00   0.290   0.310   0.316   0.318   0.281   0.277   0.217   0.226   0.233   0.235   0.231   0.228
 2020 228   119     457     239       0       0     221       0       0       0     183    0.00     0.0     0.0    0.00    0.00   0.288   0.308   0.315   0.317   0.280   0.276   0.217   0.226   0.232   0.235   0.231   0.228
 2020 229   120     456     238       0       0     221       0       0       0     183    0.00     0.0     0.0    0.00    0.00   0.286   0.306   0.313   0.316   0.280   0.276   0.217   0.226   0.232   0.235   0.231   0.228
 2020 230   121     455     237       0       0     221       0       0       0     183    0.00     0.0     0.0    0.00    0.00   0.282   0.304   0.312   0.314   0.279   0.275   0.217   0.225   0.232   0.235   0.231   0.228
 2020 231   122     454     236       0       0     221       0       0       0     183    0.00     0.0     0.0    0.00    0.00   0.278   0.301   0.310   0.313   0.278   0.274   0.217   0.225   0.232   0.235   0.231   0.229
 2020 232   123     454     235       0       0     221       0       0       0     183    0.00     0.0     0.0    0.00    0.00   0.279   0.299   0.309   0.312   0.277   0.273   0.217   0.225   0.232   0.235   0.231   0.229
 2020 233   124     453     234       0       0     221       0       0       0     183    0.00     0.0     0.0    0.00    0.00   0.275   0.298   0.307   0.310   0.276   0.272   0.217   0.225   0.232   0.235   0.231   0.229
 2020 234   125     452     233       0       0     221       0       0       0     183    0.00     0.0     0.0    0.00    0.00   0.272   0.296   0.306   0.309   0.275   0.271   0.217   0.225   0.231   0.235   0.231   0.229
 2020 235   126     451     232       0       0     221       0       0       0     183    0.00     0.0     0.0    0.00    0.00   0.268   0.294   0.304   0.308   0.274   0.271   0.217   0.225   0.231   0.234   0.231   0.229
 2020 236   127     450     232       0       0     221       0       0       0     183    0.00     0.0     0.0    0.00    0.00   0.265   0.292   0.303   0.307   0.273   0.270   0.217   0.225   0.231   0.234   0.231   0.229
 2020 237   128     449     231       0       0     221       0       0       0     183    0.00     0.0     0.0    0.00    0.00   0.261   0.290   0.302   0.306   0.272   0.269   0.217   0.224   0.231   0.234   0.231   0.229