*Soil Inorganic Nitrogen daily output file

*DSSAT Cropping System Model Ver. 4.8.2.000 -release  FEB 28, 2025 20:34:02

*RUN   1        : silt_loam_13in_irr        MZCER048 UNLI2201    1
 MODEL          : MZCER048 - Maize
 EXPERIMENT     : UNLI2201 MZ IRRIGATED MAIZE PRODUCTION
 DATA PATH      :
 TREATMENT  1   : silt_loam_13in_irr        MZCER048
  
!                                                                                                                                      NO3 (ppm) at soil dep. (cm):                                                    NH4 (ppm) at soil dep. (cm):                                                    Total Inorganic N @dep(ppm):
!                                                                                                                                       0-5    5-15   15-23   23-38   38-53   53-61   61-69   69-84   84-99  99-160     0-5    5-15   15-23   23-38   38-53   53-61   61-69   69-84   84-99  99-160     0-5    5-15   15-23   23-38   38-53   53-61   61-69   69-84   84-99  99-160
@YEAR DOY   DAS  NAPC  NI#M    NIAD    NITD    NHTD   NURTD    NMNC    NITC    NDNC    NIMC    AMLC   NNMNC    NUCM    NLCC    TDNC    NI1D    NI2D    NI3D    NI4D    NI5D    NI6D    NI7D    NI8D    NI9D    NI10    NH1D    NH2D    NH3D    NH4D    NH5D    NH6D    NH7D    NH8D    NH9D    NH10    NT1D    NT2D    NT3D    NT4D    NT5D    NT6D    NT7D    NT8D    NT9D    NT10    
 2022 120     0     0     0     0.0     0.0     0.0     0.0    0.00    0.00    0.00    0.00    0.00    0.00    0.00    0.00    0.00    0.00     0.0     0.0    0.00    0.00    0.00    0.00    0.00    0.00    0.00    0.00    0.00    0.00    0.00    0.00    0.00    0.00    0.00    0.00    0.00    0.00    0.00    0.00    0.00    0.00    0.00    0.00    0.00    0.00    0.00
 2022 121     1     0     0     0.1     0.0     0.1     0.0    0.12    0.00    0.00    0.00    0.00    0.12    0.00    0.00    0.00    0.00     0.0     0.0    0.00    0.00    0.00    0.00    0.00    0.00    0.00    0.02    0.02    0.01    0.01    0.01    0.01    0.01    0.01    0.00    0.00    0.02    0.02    0.01    0.01    0.01    0.01    0.01    0.01    0.00    0.00
 2022 122     2     0     0     0.2     0.0     0.2     0.0    0.23    0.01    0.00    0.00    0.00    0.23    0.00    0.00    0.00    0.00     0.0     0.0    0.00    0.00    0.00    0.00    0.00    0.00    0.00    0.04    0.03    0.02    0.02    0.01    0.01    0.01    0.01    0.01    0.00    0.05    0.03    0.03    0.02    0.01    0.01    0.01    0.01    0.01    0.00
 2022 123     3     0     0     0.3     0.0     0.3     0.0    0.31    0.04    0.00    0.00    0.00    0.31    0.00    0.00    0.00    0.01     0.0     0.0    0.00    0.00    0.00    0.00    0.00    0.00    0.00    0.06    0.04    0.03    0.02    0.02    0.01    0.01    0.01    0.01    0.00    0.06    0.04    0.03    0.02    0.02    0.02    0.01    0.01    0.01    0.01
 2022 124     4     0     0     0.4     0.1     0.3     0.0    0.36    0.06    0.00    0.00    0.00    0.36    0.00    0.00    0.00    0.01     0.0     0.0    0.00    0.00    0.00    0.00    0.00    0.00    0.00    0.07    0.05    0.03    0.02    0.02    0.01    0.01    0.01    0.01    0.00    0.08    0.05    0.04    0.03    0.02    0.02    0.02    0.02    0.01    0.01
 2022 125     5     0     0     0.4     0.1     0.3     0.0    0.39    0.09    0.00    0.00    0.00    0.39    0.00    0.00    0.00    0.02     0.0     0.0    0.01    0.01    0.01    0.00    0.00    0.00    0.00    0.07    0.05    0.04    0.02    0.02    0.01    0.01    0.01    0.01    0.00    0.08    0.06    0.05    0.03    0.02    0.02    0.02    0.02    0.01    0.01
 2022 126     6     0     0     0.4     0.1     0.3     0.0    0.41    0.12    0.00    0.00    0.00    0.41    0.00    0.00    0.00    0.02     0.0     0.0    0.01    0.01    0.01    0.01    0.01    0.00    0.00    0.07    0.05    0.04    0.02    0.02    0.01    0.01    0.01    0.01    0.00    0.09    0.06    0.05    0.03    0.02    0.02    0.02    0.02    0.01    0.01
 2022 127     7     0     0     0.5     0.1     0.3     0.0    0.46    0.15    0.00    0.00    0.00    0.46    0.00    0.00    0.00    0.03     0.0     0.0    0.01    0.01    0.01    0.01    0.01    0.00    0.00    0.08    0.05    0.04    0.03    0.02    0.01    0.01    0.01    0.01    0.00    0.11    0.07    0.06    0.04    0.03    0.02    0.02    0.02    0.01    0.01
 2022 128     8     0     0     0.6     0.2     0.4     0.0    0.60    0.19    0.00    0.00    0.00    0.60    0.00    0.00    0.00    0.04     0.0     0.0    0.01    0.01    0.01    0.01    0.01    0.01    0.00    0.10    0.06    0.05    0.03    0.02    0.02    0.02    0.02    0.01    0.01    0.13    0.09    0.07    0.05    0.03    0.03    0.02    0.02    0.02    0.01
 2022 129     9     0     1     0.8     0.2     0.6     0.0    0.82    0.25    0.00    0.00    0.00    0.82    0.00    0.00    0.00    0.06     0.0     0.0    0.02    0.01    0.01    0.01    0.01    0.01    0.00    0.12    0.08    0.06    0.04    0.03    0.03    0.02    0.02    0.02    0.01    0.18    0.11    0.09    0.06    0.04    0.04    0.04    0.04    0.03    0.01
 2022 130    10     0     1     1.1     0.3     0.8     0.0    1.11    0.35    0.00    0.00    0.00    1.11    0.00    0.00    0.00    0.10     0.0     0.0    0.03    0.02    0.02    0.01    0.01    0.01    0.01    0.14    0.10    0.08    0.06    0.04    0.04    0.03    0.04    0.03    0.02    0.24    0.14    0.12    0.08    0.06    0.05    0.05    0.05    0.04    0.02
 2022 131    11     0     1     1.4     0.5     1.0     0.0    1.44    0.49    0.00    0.00    0.00    1.44    0.00    0.00    0.00    0.14     0.1     0.0    0.04    0.03    0.02    0.02    0.02    0.01    0.01    0.16    0.12    0.09    0.07    0.05    0.05    0.05    0.05    0.04    0.02    0.31    0.18    0.14    0.11    0.08    0.07    0.06    0.07    0.05    0.03
 2022 132    12     0     1     1.8     0.7     1.1     0.0    1.82    0.68    0.00    0.00    0.00    1.82    0.00    0.00    0.00    0.18     0.1     0.1    0.05    0.04    0.03    0.03    0.03    0.02    0.01    0.19    0.13    0.11    0.08    0.06    0.06    0.06    0.06    0.05    0.03    0.37    0.22    0.18    0.13    0.10    0.09    0.08    0.09    0.07    0.04
 2022 133    13     0     1     2.2     0.9     1.3     0.0    2.23    0.92    0.00    0.00    0.00    2.23    0.00    0.00    0.00    0.22     0.1     0.1    0.07    0.05    0.04    0.04    0.04    0.03    0.02    0.21    0.15    0.12    0.09    0.07    0.07    0.06    0.07    0.06    0.03    0.43    0.26    0.21    0.16    0.12    0.11    0.10    0.11    0.08    0.05
 2022 134    14     0     1     2.6     1.2     1.4     0.0    2.61    1.18    0.00    0.00    0.00    2.61    0.00    0.00    0.00    0.26     0.1     0.1    0.08    0.06    0.06    0.05    0.06    0.04    0.02    0.23    0.16    0.13    0.10    0.07    0.07    0.07    0.07    0.06    0.04    0.49    0.31    0.25    0.18    0.14    0.13    0.12    0.13    0.10    0.06
 2022 135    15     0     1     3.0     1.4     1.5     0.0    2.99    1.45    0.00    0.00    0.00    2.99    0.00    0.00    0.00    0.30     0.2     0.1    0.10    0.08    0.07    0.06    0.07    0.05    0.03    0.25    0.16    0.14    0.11    0.08    0.08    0.08    0.08    0.07    0.04    0.55    0.35    0.28    0.21    0.16    0.15    0.14    0.15    0.12    0.07
 2022 136    16     0     1     3.4     1.7     1.6     0.0    3.37    1.75    0.00    0.00    0.00    3.37    0.00    0.00    0.00    0.35     0.2     0.2    0.12    0.09    0.09    0.08    0.09    0.06    0.04    0.26    0.17    0.14    0.11    0.08    0.08    0.08    0.08    0.07    0.05    0.61    0.39    0.32    0.23    0.18    0.17    0.16    0.17    0.13    0.08
 2022 137    17     0     1     3.7     2.0     1.7     0.0    3.73    2.05    0.00    0.00    0.00    3.73    0.00    0.00    0.00    0.40     0.3     0.2    0.14    0.11    0.10    0.09    0.10    0.08    0.05    0.27    0.17    0.15    0.11    0.08    0.09    0.09    0.09    0.07    0.05    0.67    0.43    0.35    0.26    0.19    0.19    0.18    0.19    0.15    0.09
 2022 138    18     0     1     4.1     2.3     1.7     0.0    4.08    2.36    0.00    0.00    0.00    4.08    0.00    0.00    0.00    0.45     0.3     0.2    0.17    0.13    0.12    0.11    0.12    0.09    0.05    0.28    0.18    0.15    0.12    0.09    0.09    0.09    0.09    0.08    0.05    0.73    0.47    0.38    0.28    0.21    0.21    0.19    0.21    0.16    0.10
 2022 139    19     0     1     4.5     2.7     1.8     0.0    4.47    2.70    0.00    0.00    0.00    4.47    0.00    0.00    0.00    0.50     0.3     0.3    0.19    0.14    0.13    0.12    0.14    0.10    0.06    0.30    0.18    0.15    0.12    0.09    0.09    0.09    0.09    0.08    0.05    0.80    0.51    0.41    0.31    0.23    0.23    0.21    0.23    0.18    0.11
 2022 140    20     0     1     4.9     3.0     1.8     0.0    4.89    3.06    0.00    0.00    0.00    4.89    0.00    0.00    0.00    0.55     0.4     0.3    0.21    0.16    0.15    0.14    0.16    0.12    0.07    0.32    0.18    0.16    0.12    0.09    0.10    0.09    0.09    0.08    0.05    0.87    0.55    0.45    0.34    0.25    0.25    0.23    0.25    0.20    0.12
 2022 141    21     0     1     5.2     3.4     1.9     0.0    5.27    3.40    0.00    0.00    0.00    5.27    0.00    0.00    0.00    0.59     0.4     0.3    0.24    0.18    0.17    0.16    0.17    0.13    0.08    0.34    0.18    0.16    0.12    0.09    0.10    0.10    0.10    0.08    0.05    0.93    0.59    0.49    0.36    0.27    0.27    0.25    0.27    0.22    0.13
 2022 142    22     0     1     5.5     3.7     1.9     0.0    5.57    3.70    0.00    0.00    0.00    5.57    0.00    0.00    0.00    0.63     0.4     0.4    0.26    0.20    0.19    0.17    0.19    0.15    0.09    0.35    0.18    0.16    0.12    0.09    0.10    0.10    0.10    0.08    0.05    0.98    0.62    0.51    0.38    0.29    0.28    0.27    0.29    0.23    0.14
 2022 143    23     0     1     5.7     3.9     1.8     0.0    5.78    3.94    0.00    0.00    0.00    5.78    0.00    0.00    0.00    0.48     0.5     0.4    0.27    0.21    0.20    0.18    0.20    0.16    0.10    0.36    0.18    0.15    0.12    0.09    0.09    0.09    0.09    0.08    0.05    0.84    0.72    0.53    0.40    0.30    0.29    0.28    0.30    0.24    0.15
 2022 144    24     0     1     5.9     4.1     1.7     0.0    5.91    4.17    0.00    0.00    0.00    5.91    0.00    0.00    0.00    0.48     0.6     0.4    0.29    0.22    0.21    0.19    0.22    0.17    0.10    0.34    0.18    0.15    0.12    0.09    0.09    0.09    0.09    0.08    0.05    0.82    0.75    0.56    0.41    0.31    0.30    0.28    0.30    0.24    0.15
 2022 145    25     0     1     6.0     4.3     1.6     0.0    5.99    4.35    0.00    0.00    0.00    5.99    0.00    0.00    0.00    0.55     0.6     0.4    0.31    0.23    0.22    0.20    0.22    0.17    0.11    0.32    0.17    0.14    0.11    0.08    0.08    0.08    0.08    0.07    0.04    0.87    0.73    0.57    0.42    0.31    0.30    0.28    0.31    0.24    0.15
 2022 146    26     0     1     6.1     4.5     1.6     0.0    6.08    4.53    0.00    0.00    0.00    6.08    0.00    0.00    0.00    0.82     0.5     0.4    0.31    0.23    0.22    0.21    0.23    0.18    0.11    0.30    0.16    0.14    0.11    0.08    0.08    0.08    0.08    0.06    0.04    1.12    0.71    0.56    0.42    0.31    0.30    0.28    0.31    0.24    0.15
 2022 147    27     0     1     6.2     4.7     1.5     0.0    6.24    4.72    0.00    0.00    0.00    6.24    0.00    0.00    0.00    1.09     0.5     0.4    0.32    0.24    0.23    0.21    0.24    0.18    0.11    0.29    0.16    0.14    0.11    0.08    0.08    0.08    0.07    0.06    0.04    1.38    0.69    0.55    0.42    0.31    0.31    0.29    0.31    0.24    0.15
 2022 148    28     0     1     6.5     4.9     1.5     0.0    6.49    4.95    0.00    0.00    0.00    6.49    0.00    0.00    0.00    1.15     0.6     0.4    0.33    0.25    0.24    0.22    0.25    0.19    0.12    0.28    0.16    0.14    0.11    0.08    0.08    0.08    0.07    0.06    0.04    1.43    0.72    0.57    0.44    0.33    0.32    0.30    0.32    0.25    0.16
 2022 149    29     0     1     6.8     5.2     1.6     0.0    6.80    5.21    0.00    0.00    0.00    6.80    0.00    0.00    0.00    1.21     0.6     0.5    0.35    0.26    0.25    0.23    0.26    0.20    0.13    0.28    0.17    0.14    0.11    0.08    0.08    0.08    0.08    0.07    0.04    1.49    0.75    0.60    0.46    0.34    0.34    0.32    0.34    0.27    0.17
 2022 150    30     0     1     7.2     5.5     1.7     0.0    7.20    5.53    0.00    0.00    0.00    7.20    0.00    0.00    0.00    1.10     0.7     0.5    0.37    0.28    0.27    0.25    0.28    0.21    0.13    0.29    0.17    0.15    0.11    0.08    0.09    0.09    0.08    0.07    0.05    1.39    0.86    0.64    0.49    0.36    0.36    0.34    0.36    0.28    0.18
 2022 151    31     0     1     7.6     5.8     1.7     0.0    7.61    5.88    0.00    0.00    0.00    7.61    0.00    0.00    0.00    1.14     0.7     0.5    0.40    0.30    0.28    0.26    0.29    0.23    0.14    0.28    0.18    0.15    0.12    0.09    0.09    0.09    0.09    0.08    0.05    1.42    0.92    0.67    0.51    0.38    0.38    0.36    0.38    0.30    0.19
 2022 152    32     0     1     7.8     6.0     1.8     0.0    8.01    6.23    0.00    0.00    0.00    8.01    0.14    0.00    0.00    1.30     0.7     0.5    0.41    0.31    0.30    0.28    0.31    0.24    0.15    0.27    0.18    0.15    0.12    0.09    0.10    0.09    0.09    0.08    0.05    1.58    0.89    0.67    0.53    0.40    0.39    0.37    0.40    0.32    0.20
 2022 153    33     0     1     7.9     6.1     1.8     0.0    8.37    6.56    0.00    0.00    0.00    8.37    0.39    0.00    0.00    1.18     0.7     0.5    0.43    0.33    0.31    0.29    0.33    0.25    0.16    0.27    0.18    0.16    0.12    0.09    0.10    0.10    0.09    0.08    0.05    1.45    0.85    0.66    0.56    0.42    0.41    0.39    0.42    0.33    0.21
 2022 154    34     0     1     8.0     6.1     1.8     0.0    8.69    6.87    0.00    0.00    0.00    8.69    0.69    0.00    0.00    1.04     0.6     0.5    0.45    0.34    0.33    0.31    0.34    0.26    0.17    0.27    0.18    0.16    0.12    0.09    0.10    0.10    0.09    0.08    0.05    1.31    0.79    0.63    0.57    0.44    0.43    0.40    0.44    0.35    0.22
 2022 155    35     0     1     7.9     6.1     1.8     0.0    8.98    7.16    0.00    0.00    0.00    8.98    1.03    0.00    0.00    0.90     0.5     0.4    0.46    0.36    0.35    0.32    0.36    0.28    0.18    0.27    0.18    0.16    0.12    0.09    0.10    0.10    0.09    0.08    0.05    1.16    0.71    0.59    0.59    0.45    0.44    0.42    0.45    0.36    0.23
 2022 156    36     0     1     7.8     6.0     1.8     0.0    9.31    7.48    0.00    0.00    0.00    9.31    1.47    0.00    0.00    0.75     0.4     0.4    0.47    0.37    0.36    0.34    0.38    0.29    0.18    0.27    0.18    0.16    0.12    0.09    0.10    0.10    0.09    0.08    0.05    1.01    0.61    0.52    0.59    0.47    0.46    0.44    0.47    0.37    0.24
 2022 157    37     0     1     7.6     5.8     1.9     0.0    9.67    7.82    0.00    0.00    0.00    9.67    2.01    0.00    0.00    0.60     0.3     0.3    0.45    0.39    0.38    0.35    0.39    0.30    0.19    0.27    0.19    0.16    0.12    0.10    0.10    0.10    0.10    0.09    0.05    0.87    0.48    0.44    0.57    0.49    0.48    0.45    0.49    0.39    0.25
 2022 158    38     0     1     7.7     5.8     1.9     0.0   10.09    8.21    0.00    0.00    0.00   10.09    2.38    0.00    0.00    0.29     0.3     0.3    0.40    0.41    0.40    0.37    0.42    0.32    0.20    0.27    0.19    0.16    0.13    0.10    0.10    0.10    0.10    0.09    0.06    0.56    0.53    0.45    0.53    0.51    0.50    0.47    0.51    0.41    0.26
 2022 159    39     0     1     7.7     5.8     1.9     0.0   10.54    8.62    0.00    0.00    0.00   10.54    2.75    0.00    0.00    0.33     0.3     0.3    0.35    0.43    0.42    0.39    0.43    0.34    0.21    0.26    0.19    0.16    0.13    0.10    0.10    0.10    0.10    0.09    0.06    0.59    0.47    0.48    0.47    0.53    0.52    0.49    0.54    0.43    0.27
 2022 160    40     0     1     7.9     5.9     1.9     0.0   10.99    9.05    0.00    0.00    0.00   10.99    3.07    0.00    0.00    0.41     0.3     0.3    0.31    0.45    0.43    0.40    0.45    0.35    0.22    0.26    0.19    0.16    0.13    0.10    0.11    0.11    0.10    0.09    0.06    0.67    0.48    0.45    0.44    0.55    0.54    0.51    0.55    0.44    0.28
 2022 161    41     0     1     8.0     6.0     2.0     0.0   11.45    9.48    0.00    0.00    0.00   11.45    3.38    0.00    0.00    0.40     0.3     0.3    0.29    0.46    0.45    0.42    0.47    0.36    0.23    0.26    0.19    0.16    0.13    0.10    0.11    0.11    0.10    0.09    0.06    0.65    0.48    0.45    0.42    0.56    0.56    0.52    0.57    0.45    0.29
 2022 162    42     0     1     8.2     6.2     2.0     0.0   11.91    9.92    0.00    0.00    0.00   11.91    3.63    0.00    0.00    0.32     0.3     0.3    0.28    0.48    0.47    0.44    0.49    0.38    0.24    0.25    0.19    0.16    0.13    0.10    0.11    0.11    0.11    0.10    0.06    0.58    0.49    0.45    0.41    0.59    0.58    0.55    0.60    0.47    0.30
 2022 163    43     0     1     8.5     6.5     2.0     0.0   12.39   10.39    0.00    0.00    0.00   12.39    3.86    0.00    0.00    0.32     0.3     0.3    0.28    0.49    0.49    0.46    0.51    0.40    0.26    0.26    0.19    0.16    0.13    0.10    0.11    0.11    0.11    0.10    0.06    0.57    0.49    0.45    0.41    0.60    0.60    0.57    0.62    0.50    0.32
 2022 164    44     0     1     8.7     6.7     2.0     0.0   12.93   10.91    0.00    0.00    0.00   12.93    4.14    0.00    0.00    0.32     0.3     0.3    0.29    0.49    0.52    0.49    0.54    0.42    0.27    0.26    0.19    0.16    0.13    0.11    0.11    0.11    0.11    0.10    0.06    0.57    0.49    0.46    0.42    0.59    0.63    0.60    0.65    0.52    0.33
 2022 165    45     0     1     9.0     6.9     2.0     0.0   13.54   11.52    0.00    0.00    0.00   13.54    4.49    0.00    0.00    0.32     0.3     0.3    0.29    0.46    0.55    0.52    0.58    0.45    0.29    0.25    0.18    0.16    0.13    0.11    0.11    0.11    0.11    0.10    0.06    0.57    0.50    0.47    0.42    0.57    0.66    0.63    0.69    0.55    0.35
 2022 166    46     0     1     9.2     7.1     2.0     0.0   14.17   12.14    0.00    0.00    0.00   14.17    4.91    0.00    0.00    0.31     0.3     0.3    0.29    0.42    0.59    0.55    0.61    0.48    0.31    0.25    0.18    0.15    0.13    0.11    0.11    0.11    0.11    0.10    0.07    0.56    0.49    0.46    0.42    0.52    0.70    0.66    0.72    0.58    0.37
 2022 167    47     0     1     9.4     7.3     2.0     0.0   14.78   12.75    0.00    0.00    0.00   14.78    5.33    0.00    0.00    0.33     0.3     0.3    0.29    0.37    0.62    0.58    0.65    0.50    0.33    0.24    0.17    0.15    0.13    0.11    0.11    0.11    0.11    0.10    0.07    0.57    0.48    0.46    0.42    0.48    0.73    0.69    0.76    0.61    0.39
 2022 168    48     0     1     9.5     7.5     2.0     0.0   15.36   13.32    0.00    0.00    0.00   15.36    5.72    0.00    0.00    0.35     0.3     0.3    0.29    0.32    0.65    0.61    0.68    0.53    0.34    0.24    0.17    0.15    0.13    0.11    0.11    0.11    0.11    0.10    0.07    0.60    0.47    0.45    0.42    0.43    0.77    0.73    0.79    0.64    0.41
 2022 169    49     0     1     9.8     7.7     2.0     0.0   15.94   13.90    0.00    0.00    0.00   15.94    6.08    0.00    0.00    0.39     0.3     0.3    0.29    0.28    0.67    0.64    0.72    0.56    0.36    0.24    0.17    0.15    0.13    0.11    0.11    0.11    0.11    0.11    0.07    0.63    0.47    0.44    0.42    0.39    0.78    0.76    0.83    0.67    0.43
 2022 170    50     0     1    10.0     8.0     2.0     0.0   16.50   14.46    0.00    0.00    0.00   16.50    6.38    0.00    0.00    0.44     0.3     0.3    0.29    0.28    0.66    0.68    0.75    0.59    0.38    0.24    0.16    0.15    0.13    0.11    0.11    0.12    0.11    0.11    0.07    0.68    0.46    0.44    0.42    0.39    0.78    0.79    0.87    0.70    0.45
 2022 171    51     0     1    10.3     8.3     2.0     0.0   17.08   15.05    0.00    0.00    0.00   17.08    6.69    0.00    0.00    0.48     0.3     0.3    0.29    0.28    0.63    0.71    0.79    0.62    0.40    0.24    0.16    0.14    0.13    0.11    0.11    0.11    0.11    0.11    0.07    0.72    0.45    0.44    0.42    0.39    0.74    0.82    0.90    0.73    0.47
 2022 172    52     0     1    10.5     8.5     2.0     0.0   17.68   15.68    0.00    0.00    0.00   17.68    7.03    0.00    0.00    0.52     0.3     0.3    0.29    0.29    0.58    0.75    0.83    0.66    0.42    0.23    0.15    0.14    0.13    0.11    0.11    0.11    0.11    0.11    0.07    0.76    0.45    0.43    0.42    0.40    0.69    0.86    0.94    0.76    0.49
 2022 173    53     0     1    10.8     8.8     2.0     0.0   18.27   16.28    0.00    0.00    0.00   18.27    7.39    0.00    0.00    0.57     0.3     0.3    0.29    0.29    0.53    0.76    0.87    0.69    0.44    0.23    0.15    0.14    0.12    0.11    0.11    0.11    0.11    0.11    0.07    0.80    0.44    0.42    0.41    0.39    0.64    0.88    0.98    0.79    0.51
 2022 174    54     0     1    10.9     8.9     2.0     0.0   18.80   16.81    0.00    0.00    0.00   18.80    7.76    0.00    0.00    0.60     0.3     0.3    0.28    0.28    0.48    0.75    0.91    0.72    0.46    0.23    0.15    0.13    0.12    0.11    0.11    0.11    0.11    0.11    0.07    0.83    0.43    0.41    0.41    0.39    0.59    0.87    1.02    0.82    0.53
 2022 175    55     0     1    11.1     9.1     2.0     0.0   19.30   17.30    0.00    0.00    0.00   19.30    8.11    0.00    0.00    0.63     0.3     0.3    0.28    0.28    0.43    0.72    0.94    0.75    0.48    0.23    0.15    0.13    0.12    0.11    0.11    0.11    0.11    0.11    0.07    0.86    0.43    0.41    0.40    0.39    0.54    0.83    1.06    0.85    0.55
 2022 176    56     0     1    11.2     9.2     2.0     0.0   19.77   17.77    0.00    0.00    0.00   19.77    8.45    0.00    0.00    0.66     0.3     0.3    0.28    0.28    0.39    0.66    0.98    0.77    0.50    0.23    0.15    0.13    0.13    0.11    0.12    0.12    0.11    0.11    0.07    0.89    0.42    0.41    0.40    0.39    0.50    0.77    1.09    0.88    0.57
 2022 177    57     0     1    11.3     9.3     2.0     0.0   20.18   18.17    0.00    0.00    0.00   20.18    8.79    0.00    0.00    0.68     0.3     0.3    0.27    0.27    0.35    0.59    1.00    0.80    0.52    0.23    0.15    0.13    0.13    0.11    0.12    0.12    0.11    0.11    0.07    0.92    0.42    0.40    0.40    0.39    0.46    0.70    1.11    0.91    0.58
 2022 178    58     0     1    11.3     9.3     2.0     0.0   20.57   18.56    0.00    0.00    0.00   20.57    9.10    0.00    0.00    0.70     0.3     0.3    0.27    0.27    0.31    0.52    1.02    0.82    0.53    0.24    0.15    0.13    0.13    0.11    0.12    0.12    0.11    0.11    0.07    0.94    0.42    0.40    0.40    0.39    0.43    0.64    1.13    0.93    0.60
 2022 179    59     0     1    11.4     9.4     2.0     0.0   20.96   18.94    0.00    0.00    0.00   20.96    9.40    0.00    0.00    0.73     0.3     0.3    0.27    0.27    0.28    0.46    1.03    0.85    0.55    0.24    0.15    0.13    0.13    0.11    0.12    0.12    0.11    0.11    0.07    0.96    0.42    0.40    0.40    0.39    0.40    0.58    1.14    0.95    0.62
 2022 180    60     0     1    11.5     9.5     2.0     0.0   21.33   19.31    0.00    0.00    0.00   21.33    9.70    0.00    0.00    0.75     0.3     0.3    0.27    0.27    0.28    0.41    1.02    0.87    0.56    0.24    0.15    0.13    0.13    0.11    0.12    0.12    0.11    0.11    0.07    0.99    0.42    0.40    0.39    0.39    0.40    0.53    1.13    0.98    0.63
 2022 181    61     0     1    11.6     9.5     2.0     0.0   21.70   19.68    0.00    0.00    0.00   21.70   10.01    0.00    0.00    0.77     0.3     0.3    0.27    0.27    0.28    0.36    0.99    0.90    0.58    0.25    0.15    0.13    0.13    0.12    0.12    0.12    0.11    0.11    0.07    1.01    0.42    0.40    0.39    0.38    0.40    0.48    1.11    1.00    0.65
 2022 182    62     0     1    11.6     9.6     2.0     0.0   22.11   20.08    0.00    0.00    0.00   22.11   10.33    0.00    0.00    0.79     0.3     0.3    0.27    0.27    0.28    0.33    0.96    0.92    0.60    0.25    0.15    0.13    0.13    0.11    0.13    0.12    0.11    0.11    0.07    1.04    0.42    0.40    0.39    0.39    0.40    0.45    1.08    1.03    0.66
 2022 183    63     0     1    11.7     9.7     2.0     0.0   22.54   20.51    0.00    0.00    0.00   22.54   10.65    0.00    0.00    0.18     0.5     0.3    0.27    0.27    0.28    0.30    0.93    0.95    0.61    0.25    0.14    0.13    0.13    0.11    0.13    0.12    0.11    0.11    0.07    0.43    0.68    0.40    0.39    0.38    0.41    0.43    1.04    1.06    0.68
 2022 184    64     0     1    11.5     9.5     2.0     0.0   23.04   21.00    0.00    0.00    0.00   23.04   11.34    0.00    0.00    0.27     0.3     0.3    0.26    0.26    0.27    0.32    0.88    0.96    0.63    0.26    0.15    0.13    0.12    0.11    0.13    0.13    0.11    0.11    0.07    0.54    0.47    0.42    0.39    0.37    0.40    0.45    1.00    1.07    0.69
 2022 185    65     0     1    11.7     9.6     2.0     0.0   23.58   21.54    0.00    0.00    0.00   23.58   11.75    0.00    0.00    0.37     0.3     0.3    0.26    0.26    0.28    0.33    0.84    0.98    0.64    0.26    0.15    0.13    0.12    0.11    0.13    0.13    0.12    0.11    0.07    0.63    0.46    0.44    0.39    0.37    0.41    0.46    0.96    1.08    0.71
 2022 186    66     0     1    11.7     9.7     2.0     0.0   24.12   22.09    0.00    0.00    0.00   24.12   12.23    0.00    0.00    0.29     0.3     0.4    0.27    0.26    0.28    0.34    0.80    0.99    0.65    0.24    0.16    0.13    0.12    0.11    0.13    0.13    0.12    0.11    0.07    0.52    0.45    0.53    0.39    0.37    0.40    0.47    0.92    1.09    0.72
 2022 187    67     0     1    11.8     9.7     2.0     0.0   24.69   22.64    0.00    0.00    0.00   24.69   12.74    0.00    0.00    0.35     0.3     0.3    0.28    0.26    0.28    0.35    0.76    1.00    0.67    0.25    0.16    0.13    0.12    0.11    0.13    0.13    0.12    0.11    0.07    0.59    0.45    0.47    0.40    0.37    0.41    0.47    0.88    1.11    0.73
 2022 188    68     0     1    11.8     9.8     2.0     0.0   25.27   23.22    0.00    0.00    0.00   25.27   13.25    0.00    0.00    0.31     0.3     0.3    0.29    0.26    0.28    0.33    0.72    1.02    0.68    0.23    0.16    0.13    0.12    0.11    0.13    0.13    0.12    0.11    0.07    0.54    0.46    0.46    0.41    0.37    0.41    0.46    0.84    1.13    0.75
 2022 189    69     0     1    11.9     9.9     2.1     0.0   25.87   23.81    0.00    0.00    0.00   25.87   13.76    0.00    0.00    0.33     0.3     0.3    0.32    0.26    0.28    0.33    0.68    1.04    0.70    0.25    0.16    0.13    0.12    0.11    0.13    0.13    0.12    0.11    0.07    0.57    0.44    0.42    0.44    0.37    0.40    0.45    0.80    1.15    0.77
 2022 190    70     0     1    12.0    10.0     2.1     0.0   26.47   24.42    0.00    0.00    0.00   26.47   14.26    0.00    0.00    0.40     0.3     0.3    0.31    0.26    0.27    0.32    0.66    1.05    0.72    0.23    0.16    0.14    0.12    0.11    0.13    0.13    0.12    0.11    0.07    0.63    0.46    0.43    0.43    0.37    0.40    0.45    0.78    1.16    0.78
 2022 191    71     0     1    12.1    10.0     2.1     0.0   27.08   25.02    0.00    0.00    0.00   27.08   14.80    0.00    0.00    0.42     0.3     0.3    0.29    0.26    0.27    0.32    0.64    1.06    0.73    0.22    0.16    0.14    0.12    0.11    0.13    0.13    0.12    0.11    0.07    0.64    0.47    0.44    0.41    0.36    0.40    0.45    0.76    1.17    0.80
 2022 192    72     0     1    12.1    10.1     2.1     0.0   27.69   25.62    0.00    0.00    0.00   27.69   15.35    0.00    0.00    0.44     0.3     0.3    0.29    0.26    0.27    0.32    0.62    1.06    0.74    0.22    0.16    0.14    0.12    0.11    0.13    0.13    0.12    0.11    0.07    0.66    0.47    0.45    0.41    0.36    0.40    0.45    0.74    1.17    0.81
 2022 193    73     0     1    12.2    10.1     2.1     0.0   28.28   26.21    0.00    0.00    0.00   28.28   15.91    0.00    0.00    0.34     0.3     0.3    0.28    0.27    0.27    0.31    0.58    1.07    0.76    0.22    0.16    0.14    0.12    0.11    0.13    0.13    0.12    0.11    0.07    0.56    0.48    0.44    0.40    0.37    0.40    0.44    0.71    1.18    0.83
 2022 194    74     0     1    12.2    10.1     2.1     0.0   28.85   26.76    0.00    0.00    0.00   28.85   16.44    0.00    0.00    0.33     0.3     0.3    0.28    0.26    0.27    0.29    0.55    1.07    0.78    0.23    0.17    0.14    0.12    0.11    0.13    0.13    0.13    0.11    0.07    0.55    0.48    0.44    0.40    0.37    0.40    0.42    0.68    1.18    0.85
 2022 195    75     0     1    12.2    10.1     2.1     0.0   29.41   27.32    0.00    0.00    0.00   29.41   16.97    0.00    0.00    0.33     0.3     0.3    0.28    0.26    0.27    0.28    0.52    1.05    0.80    0.23    0.16    0.14    0.12    0.11    0.13    0.13    0.13    0.11    0.07    0.55    0.47    0.44    0.40    0.37    0.40    0.41    0.65    1.16    0.87