*SOIL-PLANT-ATMOSPHERE MODULE OUTPUT FILE

*DSSAT Cropping System Model Ver. 4.8.2.000 -release  FEB 28, 2025 20:34:02

*RUN   1        : silt_loam_13in_irr        MZCER048 UNLI2201    1
 MODEL          : MZCER048 - Maize
 EXPERIMENT     : UNLI2201 MZ IRRIGATED MAIZE PRODUCTION
 DATA PATH      :
 TREATMENT  1   : silt_loam_13in_irr        MZCER048
  
!                                                                                                                                                                                        Soil evaporation (mm/d) by soil depth (cm):
!                                                                                                                                                                                        0-5    5-15   15-23   23-38   38-53   53-61   61-69   69-84   84-99  99-160
@YEAR DOY   DAS   SRAA  TMAXA  TMINA    REFA    EOAA    EOPA    EOSA    ETAA    EPAA    ESAA    EFAA    EMAA    EOAC    ETAC    EPAC    ESAC    EFAC    EMAC    KCAA    KBSA    KEAA    ES1D    ES2D    ES3D    ES4D    ES5D    ES6D    ES7D    ES8D    ES9D  ES10D   TRWUD   TWUPD
 2022 121     1  23.70  16.20   3.30 -99.000   4.768   0.000   4.768   0.931   0.000   0.931   0.000   0.000    4.77    0.93    0.00    0.93    0.00    0.00 -99.000 -99.000 -99.000   0.772   0.102   0.023   0.017   0.006   0.002   0.001   0.002   0.002   0.003   0.000   0.000
 2022 122     2   3.80   9.10   0.50 -99.000   0.658   0.000   0.658   0.658   0.000   0.658   0.000   0.000    5.43    1.59    0.00    1.59    0.00    0.00 -99.000 -99.000 -99.000   0.177   0.130   0.058   0.070   0.042   0.017   0.015   0.032   0.027   0.089   0.000   0.000
 2022 123     3  17.50  11.50  -2.30 -99.000   3.248   0.000   3.248   3.248   0.000   3.248   0.000   0.000    8.67    4.84    0.00    4.84    0.00    0.00 -99.000 -99.000 -99.000   0.918   0.652   0.286   0.335   0.200   0.081   0.074   0.153   0.130   0.420   0.000   0.000
 2022 124     4   3.60   8.10   4.60 -99.000   0.665   0.000   0.665   0.665   0.000   0.665   0.000   0.000    9.34    5.50    0.00    5.50    0.00    0.00 -99.000 -99.000 -99.000   0.189   0.127   0.061   0.070   0.042   0.017   0.015   0.032   0.027   0.087   0.000   0.000
 2022 125     5  11.10  13.80   6.30 -99.000   2.310   0.000   2.310   2.310   0.000   2.310   0.000   0.000   11.65    7.81    0.00    7.81    0.00    0.00 -99.000 -99.000 -99.000   0.661   0.421   0.218   0.250   0.148   0.060   0.053   0.110   0.092   0.297   0.000   0.000
 2022 126     6  24.40  26.90   2.80 -99.000   5.861   0.000   5.861   5.861   0.000   5.861   0.000   0.000   17.51   13.67    0.00   13.67    0.00    0.00 -99.000 -99.000 -99.000   1.495   1.043   0.550   0.672   0.404   0.165   0.147   0.306   0.255   0.825   0.000   0.000
 2022 127     7  21.80  27.30   8.40 -99.000   5.393   0.000   5.393   5.393   0.000   5.393   0.000   0.000   22.90   19.07    0.00   19.07    0.00    0.00 -99.000 -99.000 -99.000   1.545   0.922   0.482   0.590   0.355   0.146   0.130   0.269   0.224   0.728   0.000   0.000
 2022 128     8  22.40  24.60  11.50 -99.000   5.691   0.000   5.691   5.691   0.000   5.691   0.000   0.000   28.59   24.76    0.00   24.76    0.00    0.00 -99.000 -99.000 -99.000   1.591   0.953   0.495   0.631   0.383   0.157   0.141   0.294   0.247   0.800   0.000   0.000
 2022 129     9  26.00  23.00  10.30 -99.000   6.233   0.000   6.233   5.864   0.000   5.864   0.000   0.000   34.83   30.62    0.00   30.62    0.00    0.00 -99.000 -99.000 -99.000   1.416   0.992   0.522   0.689   0.420   0.173   0.155   0.326   0.276   0.895   0.000   0.000
 2022 130    10  27.30  24.30   7.30 -99.000   6.383   0.000   6.383   5.565   0.000   5.565   0.000   0.000   41.21   36.19    0.00   36.19    0.00    0.00 -99.000 -99.000 -99.000   1.222   0.941   0.504   0.673   0.413   0.170   0.153   0.324   0.275   0.891   0.000   0.000
 2022 131    11  22.30  32.40  12.80 -99.000   5.957   0.000   5.957   0.825   0.000   0.825   0.000   0.000   47.17   37.01    0.00   37.01    0.00    0.00 -99.000 -99.000 -99.000   0.675   0.095   0.023   0.016   0.006   0.002   0.001   0.002   0.002   0.003   0.000   0.000
 2022 132    12  18.50  30.80  12.30 -99.000   4.813   0.000   4.813   0.766   0.000   0.766   0.000   0.000   51.98   37.78    0.00   37.78    0.00    0.00 -99.000 -99.000 -99.000   0.616   0.094   0.023   0.016   0.006   0.002   0.001   0.002   0.002   0.003   0.000   0.000
 2022 133    13  24.00  24.20   6.30 -99.000   5.464   0.000   5.464   0.711   0.000   0.711   0.000   0.000   57.44   38.49    0.00   38.49    0.00    0.00 -99.000 -99.000 -99.000   0.562   0.094   0.023   0.016   0.006   0.002   0.001   0.002   0.002   0.003   0.000   0.000
 2022 134    14  23.00  22.90   7.90 -99.000   5.201   0.000   5.201   0.661   0.000   0.661   0.000   0.000   62.64   39.15    0.00   39.15    0.00    0.00 -99.000 -99.000 -99.000   0.513   0.093   0.022   0.016   0.006   0.002   0.001   0.002   0.002   0.003   0.000   0.000
 2022 135    15  26.60  22.90   9.20 -99.000   6.062   0.000   6.062   0.660   0.000   0.660   0.000   0.000   68.71   39.81    0.00   39.81    0.00    0.00 -99.000 -99.000 -99.000   0.512   0.093   0.022   0.016   0.006   0.002   0.001   0.002   0.002   0.003   0.000   0.000
 2022 136    16  26.40  29.10   7.40 -99.000   6.426   0.000   6.426   0.671   0.000   0.671   0.000   0.000   75.13   40.48    0.00   40.48    0.00    0.00 -99.000 -99.000 -99.000   0.524   0.092   0.022   0.016   0.006   0.002   0.001   0.002   0.002   0.003   0.000   0.000
 2022 137    17  23.00  28.60  15.30 -99.000   5.914   0.000   5.914   0.638   0.000   0.638   0.000   0.000   81.05   41.12    0.00   41.12    0.00    0.00 -99.000 -99.000 -99.000   0.491   0.092   0.022   0.016   0.006   0.002   0.001   0.002   0.002   0.003   0.000   0.000
 2022 138    18  27.10  29.60  10.40 -99.000   6.762   0.017   6.745   0.611   0.017   0.594   0.000   0.000   87.81   41.73    0.02   41.71    0.00    0.00 -99.000 -99.000 -99.000   0.448   0.091   0.022   0.016   0.006   0.002   0.001   0.002   0.002   0.003   0.002   0.088
 2022 139    19  21.40  31.40   8.80 -99.000   5.367   0.025   5.343   0.579   0.025   0.554   0.000   0.000   93.17   42.31    0.04   42.27    0.00    0.00 -99.000 -99.000 -99.000   0.408   0.091   0.022   0.016   0.006   0.002   0.001   0.002   0.002   0.003   0.002   0.075
 2022 140    20   8.10  11.90   6.80 -99.000   1.532   0.011   1.522   0.528   0.011   0.517   0.000   0.000   94.71   42.83    0.05   42.78    0.00    0.00 -99.000 -99.000 -99.000   0.372   0.090   0.022   0.016   0.006   0.002   0.001   0.002   0.002   0.003   0.001   0.074
 2022 141    21  14.20  13.80  -0.60 -99.000   2.554   0.018   2.536   0.502   0.018   0.484   0.000   0.000   97.26   43.34    0.07   43.27    0.00    0.00 -99.000 -99.000 -99.000   0.340   0.090   0.022   0.016   0.006   0.002   0.001   0.002   0.002   0.003   0.002   0.072
 2022 142    22  19.60  17.40  -3.30 -99.000   3.621   0.015   3.606   0.468   0.015   0.453   0.000   0.000  100.88   43.81    0.09   43.72    0.00    0.00 -99.000 -99.000 -99.000   0.310   0.089   0.022   0.016   0.006   0.002   0.001   0.002   0.002   0.003   0.002   0.072
 2022 143    23   4.20  12.30   7.10 -99.000   0.797   0.000   0.797   0.797   0.000   0.797   0.000   0.000  101.68   44.60    0.09   44.52    0.00    0.00 -99.000 -99.000 -99.000   0.652   0.091   0.022   0.016   0.006   0.002   0.001   0.002   0.002   0.003   0.000   0.074
 2022 144    24   8.60  13.00   6.60 -99.000   1.733   0.002   1.732   1.733   0.002   1.732   0.000   0.000  103.41   46.34    0.09   46.25    0.00    0.00 -99.000 -99.000 -99.000   0.471   0.282   0.142   0.192   0.119   0.049   0.044   0.094   0.080   0.260   0.000   0.123
 2022 145    25  26.50  19.00   7.70 -99.000   5.890   0.007   5.882   5.740   0.007   5.733   0.000   0.000  109.30   52.08    0.10   51.98    0.00    0.00 -99.000 -99.000 -99.000   1.425   0.971   0.494   0.657   0.402   0.166   0.150   0.318   0.270   0.881   0.001   0.122
 2022 146    26  28.80  27.30   3.70 -99.000   6.786   0.017   6.769   5.454   0.017   5.437   0.000   0.000  116.09   57.53    0.11   57.42    0.00    0.00 -99.000 -99.000 -99.000   1.220   0.922   0.484   0.650   0.394   0.164   0.148   0.314   0.267   0.873   0.002   0.124
 2022 147    27  27.00  32.90   6.80 -99.000   6.924   0.030   6.895   0.850   0.030   0.820   0.000   0.000  123.01   58.38    0.14   58.24    0.00    0.00 -99.000 -99.000 -99.000   0.674   0.093   0.022   0.016   0.006   0.002   0.001   0.002   0.002   0.003   0.003   0.127
 2022 148    28  23.90  31.00  11.00 -99.000   6.162   0.046   6.117   0.805   0.046   0.759   0.000   0.000  129.17   59.18    0.19   59.00    0.00    0.00 -99.000 -99.000 -99.000   0.613   0.093   0.022   0.016   0.006   0.002   0.001   0.002   0.002   0.003   0.005   0.134
 2022 149    29  21.10  28.30  15.00 -99.000   5.407   0.097   5.310   0.800   0.097   0.703   0.000   0.000  134.58   59.98    0.28   59.70    0.00    0.00 -99.000 -99.000 -99.000   0.558   0.092   0.022   0.016   0.006   0.002   0.001   0.002   0.002   0.003   0.010   0.145
 2022 150    30  16.50  18.60  10.60 -99.000   3.591   0.106   3.485   0.978   0.106   0.872   0.000   0.000  138.17   60.96    0.39   60.57    0.00    0.00 -99.000 -99.000 -99.000   0.725   0.094   0.022   0.016   0.006   0.002   0.001   0.002   0.002   0.003   0.011   0.170
 2022 151    31  15.50  20.40   8.40 -99.000   3.479   0.123   3.355   3.478   0.123   3.355   0.000   0.000  141.65   64.44    0.51   63.93    0.00    0.00 -99.000 -99.000 -99.000   0.801   0.566   0.285   0.390   0.238   0.099   0.090   0.191   0.163   0.532   0.012   0.193
 2022 152    32  20.60  20.00   8.60 -99.000   4.563   0.189   4.373   1.095   0.189   0.907   0.000   0.000  146.22   65.53    0.70   64.83    0.00    0.00 -99.000 -99.000 -99.000   0.759   0.096   0.021   0.016   0.005   0.002   0.001   0.002   0.002   0.003   0.019   0.219
 2022 153    33  23.50  24.20   5.00 -99.000   5.298   0.253   5.043   1.085   0.253   0.831   0.000   0.000  151.51   66.62    0.95   65.66    0.00    0.00 -99.000 -99.000 -99.000   0.684   0.095   0.021   0.016   0.005   0.002   0.001   0.002   0.002   0.003   0.025   0.264
 2022 154    34  24.50  25.90   7.70 -99.000   5.742   0.318   5.421   1.077   0.318   0.759   0.000   0.000  157.25   67.70    1.27   66.42    0.00    0.00 -99.000 -99.000 -99.000   0.613   0.094   0.021   0.016   0.005   0.002   0.001   0.002   0.002   0.003   0.032   0.325
 2022 155    35  25.90  30.40  11.20 -99.000   6.549   0.434   6.112   1.123   0.434   0.689   0.000   0.000  163.80   68.82    1.71   67.11    0.00    0.00 -99.000 -99.000 -99.000   0.545   0.093   0.021   0.016   0.005   0.002   0.001   0.002   0.002   0.003   0.043   0.395
 2022 156    36  19.80  29.30  12.60 -99.000   4.961   0.410   4.548   1.031   0.410   0.621   0.000   0.000  168.76   69.85    2.12   67.73    0.00    0.00 -99.000 -99.000 -99.000   0.477   0.092   0.021   0.016   0.005   0.002   0.001   0.002   0.002   0.003   0.041   0.477
 2022 157    37  27.20  29.20  14.10 -99.000   6.841   0.680   6.157   1.285   0.680   0.604   0.000   0.000  175.61   71.14    2.80   68.34    0.00    0.00 -99.000 -99.000 -99.000   0.462   0.091   0.020   0.016   0.005   0.002   0.001   0.002   0.002   0.003   0.068   0.393
 2022 158    38   9.40  23.50  11.40 -99.000   2.159   0.256   1.901   2.158   0.256   1.901   0.000   0.000  177.76   73.29    3.05   70.24    0.00    0.00 -99.000 -99.000 -99.000   0.468   0.318   0.154   0.217   0.134   0.056   0.051   0.108   0.092   0.302   0.026   0.626
 2022 159    39  29.80  24.90  11.00 -99.000   7.282   0.952   6.324   6.710   0.952   5.758   0.000   0.000  185.05   80.00    4.01   76.00    0.00    0.00 -99.000 -99.000 -99.000   1.610   0.960   0.468   0.613   0.380   0.159   0.144   0.306   0.262   0.858   0.095   0.721
 2022 160    40  17.90  26.70  15.10 -99.000   4.506   0.657   3.845   4.502   0.657   3.845   0.000   0.000  189.55   84.51    4.66   79.84    0.00    0.00 -99.000 -99.000 -99.000   0.942   0.648   0.342   0.426   0.266   0.112   0.101   0.216   0.185   0.607   0.066   0.921
 2022 161    41  26.20  29.60  13.10 -99.000   6.649   1.077   5.566   1.964   1.077   0.887   0.000   0.000  196.20   86.47    5.74   80.73    0.00    0.00 -99.000 -99.000 -99.000   0.743   0.093   0.021   0.015   0.005   0.002   0.001   0.002   0.001   0.003   0.108   1.055
 2022 162    42  27.30  32.70  19.40 -99.000   7.447   1.328   6.114   2.118   1.328   0.791   0.000   0.000  203.65   88.59    7.07   81.52    0.00    0.00 -99.000 -99.000 -99.000   0.649   0.091   0.021   0.015   0.005   0.002   0.001   0.002   0.001   0.003   0.133   1.250
 2022 163    43  26.90  34.60  18.80 -99.000   7.387   1.488   5.892   2.186   1.488   0.698   0.000   0.000  211.04   90.77    8.56   82.22    0.00    0.00 -99.000 -99.000 -99.000   0.560   0.088   0.020   0.014   0.005   0.002   0.001   0.002   0.001   0.003   0.149   1.456
 2022 164    44  27.40  41.20  21.10 -99.000  10.379   2.321   8.050   2.932   2.321   0.611   0.000   0.000  221.42   93.70   10.88   82.83    0.00    0.00 -99.000 -99.000 -99.000   0.477   0.085   0.020   0.014   0.005   0.002   0.001   0.002   0.001   0.003   0.232   1.677
 2022 165    45  27.30  30.00  18.10 -99.000   6.980   1.709   5.263   2.222   1.709   0.514   0.000   0.000  228.40   95.93   12.59   83.34    0.00    0.00 -99.000 -99.000 -99.000   0.385   0.080   0.019   0.014   0.005   0.002   0.001   0.002   0.001   0.003   0.171   1.517
 2022 166    46  29.00  30.60  14.00 -99.000   7.210   1.854   5.346   2.321   1.854   0.467   0.000   0.000  235.61   98.25   14.44   83.81    0.00    0.00 -99.000 -99.000 -99.000   0.344   0.076   0.018   0.014   0.005   0.002   0.001   0.002   0.001   0.003   0.185   1.688
 2022 167    47  28.90  31.60  11.20 -99.000   7.091   1.892   5.189   2.320   1.892   0.428   0.000   0.000  242.70  100.57   16.33   84.24    0.00    0.00 -99.000 -99.000 -99.000   0.310   0.072   0.017   0.013   0.005   0.002   0.001   0.002   0.001   0.003   0.189   1.900
 2022 168    48  27.80  38.90  19.80 -99.000   9.205   2.520   6.675   2.914   2.520   0.394   0.000   0.000  251.90  103.48   18.85   84.63    0.00    0.00 -99.000 -99.000 -99.000   0.282   0.068   0.017   0.013   0.005   0.002   0.001   0.002   0.001   0.003   0.252   2.128
 2022 169    49  28.20  37.20  24.40 -99.000   8.811   2.561   6.241   2.916   2.554   0.361   0.000   0.000  260.71  106.40   21.41   84.99    0.00    0.00 -99.000 -99.000 -99.000   0.256   0.062   0.015   0.013   0.005   0.002   0.001   0.002   0.001   0.003   0.255   2.325
 2022 170    50  26.40  36.60  24.50 -99.000   7.973   2.467   5.496   2.799   2.467   0.332   0.000   0.000  268.69  109.20   23.87   85.32    0.00    0.00 -99.000 -99.000 -99.000   0.234   0.057   0.014   0.012   0.005   0.002   0.001   0.002   0.001   0.003   0.247   2.556
 2022 171    51  21.80  36.60  23.00 -99.000   6.497   2.122   4.367   2.426   2.122   0.305   0.000   0.000  275.18  111.62   26.00   85.63    0.00    0.00 -99.000 -99.000 -99.000   0.213   0.052   0.013   0.012   0.005   0.002   0.001   0.002   0.001   0.003   0.212   2.350
 2022 172    52  16.70  27.20  12.00 -99.000   3.856   1.305   2.543   1.586   1.305   0.281   0.000   0.000  279.04  113.21   27.30   85.91    0.00    0.00 -99.000 -99.000 -99.000   0.194   0.049   0.012   0.012   0.005   0.002   0.001   0.002   0.001   0.003   0.131   2.236
 2022 173    53  23.10  30.80   9.10 -99.000   5.434   1.844   3.580   2.106   1.844   0.262   0.000   0.000  284.47  115.32   29.15   86.17    0.00    0.00 -99.000 -99.000 -99.000   0.177   0.047   0.011   0.011   0.005   0.002   0.001   0.002   0.001   0.003   0.184   2.037
 2022 174    54  28.80  35.40  18.20 -99.000   7.754   2.649   5.093   2.892   2.649   0.243   0.000   0.000  292.23  118.21   31.79   86.41    0.00    0.00 -99.000 -99.000 -99.000   0.162   0.046   0.011   0.011   0.005   0.002   0.001   0.002   0.001   0.003   0.265   1.797
 2022 175    55  23.10  31.90  19.40 -99.000   5.925   2.079   3.837   2.318   2.079   0.239   0.000   0.000  298.15  120.53   33.87   86.65    0.00    0.00 -99.000 -99.000 -99.000   0.161   0.044   0.010   0.010   0.005   0.002   0.001   0.002   0.001   0.003   0.208   1.724
 2022 176    56  22.80  24.90  15.30 -99.000   5.235   1.878   3.347   2.113   1.878   0.236   0.000   0.000  303.39  122.64   35.75   86.89    0.00    0.00 -99.000 -99.000 -99.000   0.160   0.042   0.010   0.010   0.004   0.002   0.001   0.002   0.001   0.003   0.188   1.738
 2022 177    57  21.10  24.40   7.80 -99.000   4.522   1.625   2.887   1.844   1.625   0.220   0.000   0.000  307.91  124.48   37.38   87.11    0.00    0.00 -99.000 -99.000 -99.000   0.146   0.041   0.009   0.009   0.004   0.002   0.001   0.002   0.001   0.003   0.162   1.790
 2022 178    58  28.70  29.30  13.40 -99.000   6.831   2.431   4.387   2.636   2.431   0.205   0.000   0.000  314.74  127.12   39.81   87.31    0.00    0.00 -99.000 -99.000 -99.000   0.133   0.041   0.009   0.009   0.004   0.001   0.001   0.002   0.001   0.003   0.243   1.852
 2022 179    59  26.10  35.00  12.80 -99.000   6.587   2.352   4.224   2.543   2.352   0.191   0.000   0.000  321.33  129.66   42.16   87.51    0.00    0.00 -99.000 -99.000 -99.000   0.121   0.040   0.009   0.008   0.004   0.001   0.001   0.002   0.001   0.003   0.235   1.758
 2022 180    60  24.30  38.10  19.80 -99.000   7.581   2.738   4.832   2.917   2.738   0.179   0.000   0.000  328.91  132.58   44.90   87.68    0.00    0.00 -99.000 -99.000 -99.000   0.111   0.039   0.009   0.007   0.004   0.001   0.001   0.002   0.001   0.003   0.274   1.379
 2022 181    61  20.00  34.10  19.90 -99.000   5.246   1.935   3.303   2.102   1.935   0.167   0.000   0.000  334.15  134.68   46.83   87.85    0.00    0.00 -99.000 -99.000 -99.000   0.101   0.038   0.008   0.007   0.004   0.001   0.001   0.002   0.001   0.003   0.193   1.239
 2022 182    62  21.10  30.70  17.70 -99.000   5.247   1.965   3.272   2.122   1.965   0.157   0.000   0.000  339.40  136.80   48.80   88.01    0.00    0.00 -99.000 -99.000 -99.000   0.092   0.037   0.008   0.006   0.003   0.001   0.001   0.002   0.001   0.003   0.197   1.204
 2022 183    63  23.20  28.40  15.90 -99.000   5.543   2.087   3.445   5.532   2.087   3.445   0.000   0.000  344.94  142.34   50.88   91.45    0.00    0.00 -99.000 -99.000 -99.000   1.083   0.470   0.146   0.206   0.178   0.105   0.105   0.245   0.212   0.697   0.209   1.093
 2022 184    64  24.00  34.50  20.60 -99.000   6.784   2.553   4.220   6.773   2.553   4.220   0.000   0.000  351.73  149.11   53.44   95.67    0.00    0.00 -99.000 -99.000 -99.000   1.829   0.690   0.144   0.180   0.147   0.091   0.092   0.221   0.192   0.634   0.255   2.483
 2022 185    65  25.80  37.00  19.40 -99.000   8.045   3.069   4.963   8.032   3.069   4.963   0.000   0.000  359.77  157.14   56.50  100.64    0.00    0.00 -99.000 -99.000 -99.000   1.760   0.950   0.250   0.229   0.186   0.115   0.118   0.285   0.249   0.823   0.307   2.554
 2022 186    66  24.40  36.90  19.90 -99.000   7.427   2.874   4.541   7.415   2.874   4.541   0.000   0.000  367.20  164.56   59.38  105.18    0.00    0.00 -99.000 -99.000 -99.000   1.615   0.965   0.327   0.186   0.148   0.091   0.094   0.233   0.204   0.676   0.287   3.348
 2022 187    67  14.10  28.80  18.80 -99.000   3.673   1.440   2.226   3.666   1.440   2.226   0.000   0.000  370.87  168.22   60.82  107.40    0.00    0.00 -99.000 -99.000 -99.000   0.752   0.510   0.203   0.093   0.067   0.041   0.043   0.108   0.095   0.315   0.144   3.356
 2022 188    68  20.90  27.70  20.40 -99.000   5.381   2.116   3.255   5.370   2.116   3.255   0.000   0.000  376.25  173.59   62.93  110.66    0.00    0.00 -99.000 -99.000 -99.000   1.154   0.701   0.319   0.155   0.093   0.056   0.059   0.149   0.131   0.437   0.212   3.482
 2022 189    69  27.30  31.70  18.70 -99.000   7.340   2.938   4.388   7.326   2.938   4.388   0.000   0.000  383.59  180.92   65.87  115.05    0.00    0.00 -99.000 -99.000 -99.000   1.433   0.887   0.435   0.307   0.132   0.079   0.084   0.213   0.189   0.628   0.294   4.394
 2022 190    70  27.10  36.40  19.60 -99.000   8.027   3.258   4.755   8.013   3.258   4.755   0.000   0.000  391.62  188.93   69.13  119.80    0.00    0.00 -99.000 -99.000 -99.000   1.333   0.941   0.476   0.442   0.154   0.092   0.098   0.251   0.223   0.745   0.326   4.442
 2022 191    71  27.40  37.80  22.30 -99.000   8.776   3.587   5.176   8.420   3.587   4.833   0.000   0.000  400.40  197.35   72.72  124.63    0.00    0.00 -99.000 -99.000 -99.000   1.270   0.939   0.477   0.475   0.163   0.096   0.103   0.268   0.240   0.801   0.359   4.450
 2022 192    72  27.80  27.70  15.10 -99.000   6.712   2.743   3.954   3.592   2.743   0.848   0.000   0.000  407.11  200.94   75.46  125.48    0.00    0.00 -99.000 -99.000 -99.000   0.716   0.091   0.020   0.011   0.002   0.001   0.001   0.002   0.001   0.003   0.274   4.459
 2022 193    73  26.80  30.50  12.60 -99.000   6.541   2.638   3.889   3.399   2.638   0.761   0.000   0.000  413.65  204.34   78.10  126.24    0.00    0.00 -99.000 -99.000 -99.000   0.634   0.086   0.019   0.011   0.002   0.001   0.001   0.002   0.001   0.003   0.264   4.507
 2022 194    74  25.00  36.10  17.90 -99.000   7.056   2.806   4.238   3.488   2.806   0.682   0.000   0.000  420.71  207.83   80.90  126.93    0.00    0.00 -99.000 -99.000 -99.000   0.561   0.082   0.018   0.010   0.002   0.001   0.001   0.002   0.001   0.003   0.281   4.534
 2022 195    75  29.30  38.90  22.10 -99.000   9.791   3.862   5.914   4.469   3.862   0.607   0.000   0.000  430.50  212.30   84.77  127.53    0.00    0.00 -99.000 -99.000 -99.000   0.492   0.077   0.017   0.010   0.002   0.001   0.001   0.002   0.001   0.003   0.386   4.531
 2022 196    76  27.20  34.70  17.50 -99.000   7.143   2.801   4.329   3.312   2.801   0.511   0.000   0.000  437.64  215.61   87.57  128.04    0.00    0.00 -99.000 -99.000 -99.000   0.404   0.071   0.016   0.009   0.002   0.001   0.001   0.002   0.001   0.003   0.280   4.110
 2022 197    77  20.10  34.50  19.70 -99.000   5.340   2.074   3.257   2.532   2.074   0.459   0.000   0.000  442.98  218.14   89.64  128.50    0.00    0.00 -99.000 -99.000 -99.000   0.358   0.066   0.015   0.009   0.002   0.001   0.001   0.002   0.001   0.003   0.207   4.013
 2022 198    78  27.40  34.10  17.00 -99.000   7.106   2.727   4.366   3.146   2.727   0.419   0.000   0.000  450.09  221.29   92.37  128.92    0.00    0.00 -99.000 -99.000 -99.000   0.324   0.063   0.014   0.008   0.002   0.001   0.001   0.002   0.001   0.003   0.273   3.967
 2022 199    79  28.30  38.90  19.40 -99.000   9.222   3.499   5.708   3.882   3.499   0.383   0.000   0.000  459.31  225.17   95.87  129.30    0.00    0.00 -99.000 -99.000 -99.000   0.294   0.058   0.013   0.008   0.002   0.001   0.001   0.002   0.001   0.003   0.350   3.665
 2022 200    80  29.20  34.60  15.30 -99.000   7.508   2.822   4.672   3.161   2.814   0.347   0.000   0.000  466.82  228.33   98.68  129.65    0.00    0.00 -99.000 -99.000 -99.000   0.267   0.051   0.012   0.007   0.002   0.001   0.001   0.002   0.001   0.003   0.281   2.654
 2022 201    81  28.10  34.20  13.20 -99.000   7.082   2.630   4.438   2.948   2.630   0.318   0.000   0.000  473.90  231.28  101.31  129.97    0.00    0.00 -99.000 -99.000 -99.000   0.244   0.047   0.010   0.007   0.002   0.001   0.001   0.002   0.001   0.003   0.263   1.480
 2022 202    82  25.50  38.00  17.10 -99.000   7.811   2.866   4.933   6.685   2.866   3.819   0.000   0.000  481.71  237.97  104.18  133.79    0.00    0.00 -99.000 -99.000 -99.000   1.259   0.515   0.206   0.257   0.150   0.076   0.080   0.250   0.232   0.793   0.287   1.047
 2022 203    83  27.40  34.80  19.40 -99.000   7.646   2.784   4.850   7.060   2.784   4.277   0.000   0.000  489.36  245.03  106.96  138.07    0.00    0.00 -99.000 -99.000 -99.000   1.681   0.628   0.186   0.236   0.145   0.072   0.073   0.241   0.227   0.786   0.278   2.408
 2022 204    84  23.60  36.20  23.40 -99.000   7.112   2.510   4.591   6.327   2.510   3.817   0.000   0.000  496.47  251.35  109.47  141.88    0.00    0.00 -99.000 -99.000 -99.000   1.296   0.595   0.177   0.227   0.142   0.071   0.071   0.236   0.224   0.779   0.251   2.332
 2022 205    85  24.80  28.80  17.20 -99.000   6.217   2.125   4.081   2.862   2.125   0.737   0.000   0.000  502.69  254.21  111.60  142.62    0.00    0.00 -99.000 -99.000 -99.000   0.660   0.054   0.008   0.005   0.002   0.001   0.001   0.002   0.001   0.003   0.212   2.194
 2022 206    86   5.60  22.10  18.10 -99.000   1.302   0.431   0.869   1.244   0.431   0.813   0.000   0.000  503.99  255.46  112.03  143.43    0.00    0.00 -99.000 -99.000 -99.000   0.740   0.051   0.008   0.005   0.002   0.001   0.001   0.002   0.001   0.003   0.043   1.422
 2022 207    87  15.30  27.40  17.90 -99.000   3.845   1.234   2.605   3.839   1.234   2.605   0.000   0.000  507.83  259.30  113.26  146.04    0.00    0.00 -99.000 -99.000 -99.000   0.909   0.358   0.120   0.154   0.098   0.049   0.049   0.162   0.156   0.550   0.123   1.890
 2022 208    88  16.60  28.80  13.60 -99.000   4.078   1.267   2.804   4.071   1.267   2.804   0.000   0.000  511.91  263.37  114.53  148.84    0.00    0.00 -99.000 -99.000 -99.000   1.128   0.493   0.122   0.133   0.085   0.042   0.042   0.141   0.136   0.482   0.127   1.506
 2022 209    89  18.40  24.40  15.60 -99.000   4.542   1.367   3.167   4.534   1.367   3.167   0.000   0.000  516.45  267.90  115.89  152.01    0.00    0.00 -99.000 -99.000 -99.000   1.232   0.697   0.161   0.134   0.086   0.043   0.043   0.142   0.138   0.491   0.137   2.410
 2022 210    90  15.40  25.90  16.40 -99.000   3.828   1.117   2.705   3.822   1.117   2.705   0.000   0.000  520.28  271.73  117.01  154.71    0.00    0.00 -99.000 -99.000 -99.000   0.909   0.609   0.185   0.123   0.080   0.039   0.039   0.132   0.129   0.459   0.112   3.103
 2022 211    91  27.20  28.70  15.30 -99.000   6.854   1.938   4.905   6.152   1.938   4.214   0.000   0.000  527.14  277.88  118.95  158.93    0.00    0.00 -99.000 -99.000 -99.000   1.290   0.957   0.327   0.201   0.130   0.064   0.064   0.215   0.211   0.754   0.194   3.084
 2022 212    92  21.80  33.20  17.70 -99.000   5.827   1.598   4.222   2.399   1.598   0.801   0.000   0.000  532.96  280.28  120.55  159.73    0.00    0.00 -99.000 -99.000 -99.000   0.681   0.093   0.014   0.005   0.002   0.001   0.001   0.002   0.001   0.003   0.160   3.068
 2022 213    93  25.60  37.30  15.00 -99.000   7.717   2.052   5.656   2.762   2.052   0.710   0.000   0.000  540.68  283.04  122.60  160.44    0.00    0.00 -99.000 -99.000 -99.000   0.595   0.089   0.013   0.005   0.002   0.001   0.001   0.002   0.001   0.003   0.205   3.061
 2022 214    94  24.00  38.90  19.30 -99.000   8.042   2.074   5.959   2.758   2.074   0.684   0.000   0.000  548.72  285.80  124.67  161.12    0.00    0.00 -99.000 -99.000 -99.000   0.574   0.084   0.012   0.005   0.002   0.001   0.001   0.002   0.001   0.003   0.207   3.056
 2022 215    95  25.50  33.20  18.40 -99.000   6.827   1.707   5.112   2.365   1.707   0.658   0.000   0.000  555.55  288.16  126.38  161.78    0.00    0.00 -99.000 -99.000 -99.000   0.555   0.079   0.011   0.005   0.002   0.001   0.001   0.002   0.001   0.003   0.171   2.679
 2022 216    96  25.50  34.60  16.20 -99.000   6.798   1.647   5.143   2.219   1.647   0.572   0.000   0.000  562.35  290.38  128.03  162.35    0.00    0.00 -99.000 -99.000 -99.000   0.473   0.075   0.011   0.005   0.002   0.001   0.001   0.002   0.001   0.003   0.165   2.491
 2022 217    97  25.10  37.50  22.10 -99.000   7.968   1.872   6.088   2.363   1.872   0.491   0.000   0.000  570.31  292.74  129.90  162.85    0.00    0.00 -99.000 -99.000 -99.000   0.398   0.070   0.010   0.005   0.002   0.001   0.001   0.002   0.001   0.003   0.187   1.977
 2022 218    98  21.70  30.30  21.50 -99.000   5.708   1.299   4.402   1.736   1.299   0.437   0.000   0.000  576.02  294.48  131.20  163.28    0.00    0.00 -99.000 -99.000 -99.000   0.351   0.063   0.010   0.005   0.002   0.001   0.001   0.001   0.001   0.003   0.130   1.830
 2022 219    99   7.20  22.30  14.20 -99.000   1.630   0.359   1.268   0.792   0.359   0.433   0.000   0.000  577.65  295.27  131.56  163.72    0.00    0.00 -99.000 -99.000 -99.000   0.352   0.058   0.010   0.005   0.002   0.001   0.001   0.001   0.001   0.003   0.036   1.777
 2022 220   100  26.10  30.70   8.50 -99.000   6.268   1.341   4.919   1.776   1.341   0.435   0.000   0.000  583.92  297.05  132.90  164.15    0.00    0.00 -99.000 -99.000 -99.000   0.356   0.057   0.010   0.005   0.002   0.001   0.001   0.001   0.001   0.003   0.134   1.803
 2022 221   101  25.50  34.70  16.50 -99.000   6.790   1.411   5.373   1.805   1.411   0.395   0.000   0.000  590.71  298.85  134.31  164.55    0.00    0.00 -99.000 -99.000 -99.000   0.321   0.051   0.009   0.005   0.002   0.001   0.001   0.001   0.001   0.003   0.141   1.236
 2022 222   102  25.70  36.20  15.80 -99.000   7.288   1.470   5.812   1.829   1.470   0.359   0.000   0.000  598.00  300.68  135.78  164.90    0.00    0.00 -99.000 -99.000 -99.000   0.290   0.047   0.009   0.005   0.002   0.001   0.001   0.001   0.001   0.003   0.147   0.820
 2022 223   103  24.80  36.00  15.30 -99.000   6.926   1.356   5.565   1.670   1.341   0.328   0.000   0.000  604.92  302.35  137.12  165.23    0.00    0.00 -99.000 -99.000 -99.000   0.262   0.044   0.009   0.005   0.002   0.001   0.001   0.001   0.001   0.003   0.134   0.667