*N2O emissions output file

*DSSAT Cropping System Model Ver. 4.8.2.000 -release  NOV 17, 2024 23:49:55

*RUN   1        : silt_loam_13in_irr        MZCER048 UNLI2201    1
 MODEL          : MZCER048 - Maize
 EXPERIMENT     : UNLI2201 MZ IRRIGATED MAIZE PRODUCTION
 DATA PATH      :
 TREATMENT  1   : silt_loam_13in_irr        MZCER048
  
!              |------------------------------ Cumulative -----------------------------|------------------------------ Daily ----------------------------------|
!               N2Oemit  N2emit  NOemit   Denit  Nitrif   N2O-denit+nit      N2      NO N2Oemit  N2emit  NOemit   Denit  Nitrif   N2O-denit+nit      N2      NO   Denitrification (g[N]/ha) by soil depth (cm):                                   Nitrification (g[N]/ha) by soil depth (cm):                                     N2O flux (g[N]/ha) by soil depth (cm):                                          N2 flux (g[N]/ha) by soil depth (cm):                                           NO flux (g[N]/ha) by soil depth (cm):
!                 kg/ha   kg/ha   kg/ha   kg/ha   kg/ha   kg/ha   kg/ha   kg/ha   kg/ha    g/ha    g/ha    g/ha    g/ha    g/ha    g/ha    g/ha    g/ha    g/ha     0-5    5-15   15-23   23-38   38-53   53-61   61-69   69-84   84-99  99-160     0-5    5-15   15-23   23-38   38-53   53-61   61-69   69-84   84-99  99-160     0-5    5-15   15-23   23-38   38-53   53-61   61-69   69-84   84-99  99-160     0-5    5-15   15-23   23-38   38-53   53-61   61-69   69-84   84-99  99-160     0-5    5-15   15-23   23-38   38-53   53-61   61-69   69-84   84-99  99-160
@YEAR DOY   DAS   N2OEC    N2EC    NOEC    NDNC    NITC   N2ODC   N2ONC   N2FLC   NOFLC  N2OGED   N2GED   NOGED    NDND   NITRD   N2ODD   N2OND   N2FLD   NOFLD   NDN1D   NDN2D   NDN3D   NDN4D   NDN5D   NDN6D   NDN7D   NDN8D   NDN9D   NDN10   NIT1D   NIT2D   NIT3D   NIT4D   NIT5D   NIT6D   NIT7D   NIT8D   NIT9D   NIT10   N2O1D   N2O2D   N2O3D   N2O4D   N2O5D   N2O6D   N2O7D   N2O8D   N2O9D   N2O10   N2F1D   N2F2D   N2F3D   N2F4D   N2F5D   N2F6D   N2F7D   N2F8D   N2F9D   N2F10   NOF1D   NOF2D   NOF3D   NOF4D   NOF5D   NOF6D   NOF7D   NOF8D   NOF9D   NOF10
 2022 121     1    0.00    0.00    0.00    0.00     0.0   0.000   0.000   0.000   0.000     0.0     0.0     0.0     0.0       0    0.00    0.00    0.00    0.00     0.0     0.0     0.0     0.0     0.0     0.0     0.0     0.0     0.0     0.0      0.      0.      0.      0.      0.      0.      0.      0.      0.      0.     0.0     0.0     0.0     0.0     0.0     0.0     0.0     0.0     0.0     0.0     0.0     0.0     0.0     0.0     0.0     0.0     0.0     0.0     0.0     0.0     0.0     0.0     0.0     0.0     0.0     0.0     0.0     0.0     0.0     0.0
 2022 122     2    0.00    0.00    0.00    0.00     0.0   0.000   0.000   0.000   0.000     0.0     0.0     0.0     0.0      14    0.00    0.01    0.00    0.30     0.0     0.0     0.0     0.0     0.0     0.0     0.0     0.0     0.0     0.0      2.      3.      2.      2.      1.      1.      1.      1.      1.      0.     0.0     0.0     0.0     0.0     0.0     0.0     0.0     0.0     0.0     0.0     0.0     0.0     0.0     0.0     0.0     0.0     0.0     0.0     0.0     0.0     0.0     0.0     0.0     0.0     0.0     0.0     0.0     0.0     0.0     0.0
 2022 123     3    0.00    0.00    0.00    0.00     0.0   0.000   0.000   0.000   0.001     0.0     0.0     0.0     0.0      22    0.00    0.02    0.00    0.26     0.0     0.0     0.0     0.0     0.0     0.0     0.0     0.0     0.0     0.0      2.      4.      3.      3.      3.      1.      1.      2.      1.      1.     0.0     0.0     0.0     0.0     0.0     0.0     0.0     0.0     0.0     0.0     0.0     0.0     0.0     0.0     0.0     0.0     0.0     0.0     0.0     0.0     0.0     0.0     0.0     0.0     0.0     0.0     0.0     0.0     0.0     0.0
 2022 124     4    0.00    0.00    0.00    0.00     0.1   0.000   0.000   0.000   0.001     0.0     0.0     0.0     0.0      28    0.00    0.03    0.00    0.26     0.0     0.0     0.0     0.0     0.0     0.0     0.0     0.0     0.0     0.0      3.      5.      3.      4.      3.      1.      1.      2.      2.      1.     0.0     0.0     0.0     0.0     0.0     0.0     0.0     0.0     0.0     0.0     0.0     0.0     0.0     0.0     0.0     0.0     0.0     0.0     0.0     0.0     0.0     0.0     0.0     0.0     0.0     0.0     0.0     0.0     0.0     0.0
 2022 125     5    0.00    0.00    0.00    0.00     0.1   0.000   0.000   0.000   0.001     0.0     0.0     0.0     0.0      28    0.00    0.03    0.00    0.19     0.0     0.0     0.0     0.0     0.0     0.0     0.0     0.0     0.0     0.0      3.      6.      4.      4.      3.      1.      1.      2.      1.      1.     0.0     0.0     0.0     0.0     0.0     0.0     0.0     0.0     0.0     0.0     0.0     0.0     0.0     0.0     0.0     0.0     0.0     0.0     0.0     0.0     0.0     0.0     0.0     0.0     0.0     0.0     0.0     0.0     0.0     0.0
 2022 126     6    0.00    0.00    0.00    0.00     0.1   0.000   0.000   0.000   0.001     0.0     0.0     0.0     0.0      28    0.00    0.03    0.00    0.14     0.0     0.0     0.0     0.0     0.0     0.0     0.0     0.0     0.0     0.0      4.      6.      4.      4.      3.      1.      1.      2.      1.      1.     0.0     0.0     0.0     0.0     0.0     0.0     0.0     0.0     0.0     0.0     0.0     0.0     0.0     0.0     0.0     0.0     0.0     0.0     0.0     0.0     0.0     0.0     0.0     0.0     0.0     0.0     0.0     0.0     0.0     0.0
 2022 127     7    0.00    0.00    0.00    0.00     0.1   0.000   0.000   0.000   0.001     0.0     0.0     0.0     0.0      30    0.00    0.03    0.00    0.17     0.0     0.0     0.0     0.0     0.0     0.0     0.0     0.0     0.0     0.0      4.      6.      4.      5.      3.      1.      1.      2.      1.      1.     0.0     0.0     0.0     0.0     0.0     0.0     0.0     0.0     0.0     0.0     0.0     0.0     0.0     0.0     0.0     0.0     0.0     0.0     0.0     0.0     0.0     0.0     0.0     0.0     0.0     0.0     0.0     0.0     0.0     0.0
 2022 128     8    0.00    0.00    0.00    0.00     0.2   0.000   0.000   0.000   0.001     0.0     0.0     0.0     0.0      38    0.00    0.04    0.00    0.14     0.0     0.0     0.0     0.0     0.0     0.0     0.0     0.0     0.0     0.0      5.      9.      5.      6.      4.      2.      1.      2.      1.      1.     0.0     0.0     0.0     0.0     0.0     0.0     0.0     0.0     0.0     0.0     0.0     0.0     0.0     0.0     0.0     0.0     0.0     0.0     0.0     0.0     0.0     0.0     0.0     0.0     0.0     0.0     0.0     0.0     0.0     0.0
 2022 129     9    0.00    0.00    0.00    0.00     0.2   0.000   0.000   0.000   0.002     0.0     0.0     0.0     0.0      62    0.00    0.06    0.03    0.28     0.0     0.0     0.0     0.0     0.0     0.0     0.0     0.0     0.0     0.0      9.     13.      8.     10.      6.      3.      2.      4.      3.      1.     0.0     0.0     0.0     0.0     0.0     0.0     0.0     0.0     0.0     0.0     0.0     0.0     0.0     0.0     0.0     0.0     0.0     0.0     0.0     0.0     0.0     0.0     0.0     0.0     0.0     0.0     0.0     0.0     0.0     0.0
 2022 130    10    0.00    0.00    0.00    0.00     0.3   0.000   0.000   0.000   0.002     0.0     0.0     0.0     0.3      95    0.00    0.10    0.27    0.34     0.1     0.1     0.0     0.0     0.0     0.0     0.0     0.0     0.0     0.0     10.     19.     12.     15.     10.      5.      4.      7.      5.      3.     0.0     0.0     0.0     0.0     0.0     0.0     0.0     0.0     0.0     0.0     0.1     0.1     0.0     0.0     0.0     0.0     0.0     0.0     0.0     0.0     0.0     0.0     0.0     0.0     0.1     0.0     0.0     0.1     0.0     0.0
 2022 131    11    0.00    0.00    0.00    0.00     0.5   0.000   0.000   0.001   0.003     0.0     0.0     0.0     0.5     127    0.00    0.13    0.54    0.44     0.1     0.2     0.2     0.0     0.0     0.0     0.0     0.0     0.0     0.0     13.     18.     12.     20.     15.      7.      6.     12.      8.      5.     0.0     0.0     0.0     0.0     0.0     0.0     0.0     0.0     0.0     0.0     0.1     0.2     0.2     0.0     0.0     0.0     0.0     0.0     0.0     0.0     0.0     0.0     0.0     0.0     0.1     0.0     0.0     0.1     0.1     0.0
 2022 132    12    0.00    0.00    0.00    0.00     0.6   0.000   0.001   0.002   0.003     0.0     0.0     0.0     0.9     177    0.00    0.18    0.87    0.51     0.2     0.3     0.2     0.2     0.0     0.0     0.0     0.0     0.0     0.0     17.     25.     16.     28.     20.     10.      9.     17.     12.      7.     0.0     0.0     0.0     0.0     0.0     0.0     0.0     0.0     0.0     0.0     0.2     0.3     0.2     0.2     0.0     0.0     0.0     0.0     0.0     0.0     0.0     0.0     0.0     0.0     0.0     0.0     0.1     0.1     0.1     0.1
 2022 133    13    0.00    0.00    0.00    0.00     0.9   0.000   0.001   0.003   0.004     0.0     0.0     0.0     1.4     218    0.00    0.22    1.39    0.56     0.2     0.4     0.3     0.4     0.2     0.0     0.0     0.0     0.0     0.0     20.     31.     20.     29.     25.     13.     12.     22.     17.     10.     0.0     0.0     0.0     0.0     0.0     0.0     0.0     0.0     0.0     0.0     0.2     0.4     0.3     0.4     0.2     0.0     0.0     0.0     0.0     0.0     0.0     0.0     0.0     0.0     0.0     0.0     0.0     0.1     0.1     0.1
 2022 134    14    0.00    0.00    0.00    0.01     1.1   0.000   0.001   0.005   0.004     0.0     0.0     0.0     2.1     240    0.00    0.24    2.06    0.55     0.2     0.4     0.3     0.5     0.3     0.2     0.1     0.0     0.0     0.0     22.     35.     22.     27.     28.     14.     13.     25.     19.     12.     0.0     0.0     0.0     0.0     0.0     0.0     0.0     0.0     0.0     0.0     0.2     0.4     0.3     0.5     0.3     0.2     0.1     0.0     0.0     0.0     0.0     0.0     0.0     0.0     0.0     0.0     0.0     0.1     0.1     0.1
 2022 135    15    0.00    0.00    0.00    0.01     1.4   0.000   0.001   0.008   0.005     0.0     0.1     0.0     2.7     253    0.01    0.25    2.71    0.51     0.3     0.5     0.4     0.6     0.4     0.3     0.2     0.0     0.0     0.0     23.     37.     24.     28.     26.     11.     14.     27.     21.     13.     0.0     0.0     0.0     0.0     0.0     0.0     0.0     0.0     0.0     0.0     0.3     0.5     0.4     0.6     0.4     0.3     0.2     0.0     0.0     0.0     0.0     0.0     0.0     0.0     0.0     0.0     0.0     0.1     0.1     0.1
 2022 136    16    0.00    0.00    0.00    0.01     1.6   0.000   0.002   0.011   0.005     0.0     0.1     0.0     3.5     268    0.01    0.27    3.50    0.41     0.3     0.5     0.4     0.7     0.6     0.3     0.3     0.2     0.0     0.0     26.     41.     27.     32.     24.     13.     11.     29.     23.     14.     0.0     0.0     0.0     0.0     0.0     0.0     0.0     0.0     0.0     0.0     0.3     0.5     0.4     0.7     0.6     0.3     0.3     0.2     0.0     0.0     0.0     0.0     0.0     0.0     0.0     0.0     0.0     0.0     0.1     0.1
 2022 137    17    0.00    0.00    0.00    0.01     1.9   0.000   0.002   0.015   0.005     0.0     0.2     0.0     3.4     314    0.01    0.31    3.41    0.38     0.2     0.4     0.4     0.6     0.6     0.4     0.4     0.4     0.2     0.0     34.     57.     30.     43.     28.     13.     12.     29.     23.     14.     0.0     0.1     0.0     0.0     0.0     0.0     0.0     0.0     0.0     0.0     0.2     0.4     0.4     0.6     0.6     0.4     0.4     0.4     0.2     0.0     0.1     0.0     0.0     0.0     0.0     0.0     0.0     0.0     0.0     0.1
 2022 138    18    0.00    0.00    0.00    0.02     2.3   0.000   0.002   0.017   0.006     0.1     0.4     0.1     2.0     354    0.01    0.35    2.02    0.79     0.1     0.3     0.3     0.3     0.3     0.2     0.2     0.2     0.1     0.1     33.     57.     42.     50.     35.     18.     17.     30.     24.     15.     0.0     0.1     0.0     0.1     0.0     0.0     0.0     0.0     0.0     0.0     0.1     0.2     0.3     0.3     0.3     0.2     0.2     0.2     0.1     0.1     0.2     0.1     0.0     0.0     0.0     0.0     0.0     0.1     0.1     0.1
 2022 139    19    0.00    0.00    0.00    0.02     2.7   0.000   0.003   0.018   0.008     0.1     0.5     0.2     1.1     380    0.00    0.38    1.14    1.30     0.0     0.1     0.2     0.2     0.2     0.1     0.1     0.1     0.1     0.0     35.     61.     44.     53.     38.     20.     18.     33.     27.     17.     0.0     0.1     0.0     0.1     0.0     0.0     0.0     0.0     0.0     0.0     0.0     0.1     0.2     0.2     0.2     0.1     0.1     0.1     0.1     0.0     0.3     0.2     0.0     0.1     0.1     0.0     0.0     0.1     0.2     0.1
 2022 140    20    0.00    0.00    0.00    0.02     3.1   0.000   0.003   0.019   0.009     0.1     0.6     0.2     0.6     406    0.00    0.41    0.61    1.93     0.0     0.0     0.1     0.1     0.1     0.1     0.1     0.1     0.0     0.0     36.     64.     46.     57.     41.     21.     19.     36.     29.     18.     0.0     0.1     0.0     0.1     0.0     0.0     0.0     0.0     0.0     0.0     0.0     0.0     0.1     0.1     0.1     0.1     0.1     0.1     0.0     0.0     0.3     0.3     0.1     0.1     0.2     0.1     0.1     0.2     0.2     0.1
 2022 141    21    0.00    0.00    0.00    0.02     3.5   0.000   0.003   0.019   0.011     0.1     0.6     0.3     0.4     373    0.00    0.37    0.35    1.99     0.0     0.0     0.0     0.1     0.1     0.0     0.0     0.0     0.0     0.0     31.     57.     41.     52.     38.     19.     18.     34.     28.     18.     0.0     0.1     0.0     0.1     0.0     0.0     0.0     0.0     0.0     0.0     0.0     0.0     0.0     0.1     0.1     0.0     0.0     0.0     0.0     0.0     0.2     0.3     0.1     0.2     0.2     0.1     0.1     0.2     0.2     0.1
 2022 142    22    0.00    0.00    0.00    0.02     3.8   0.000   0.004   0.019   0.013     0.1     0.6     0.3     0.2     318    0.00    0.32    0.16    1.82     0.0     0.0     0.0     0.0     0.0     0.0     0.0     0.0     0.0     0.0     25.     48.     34.     44.     32.     16.     16.     30.     25.     16.     0.0     0.0     0.0     0.0     0.0     0.0     0.0     0.0     0.0     0.0     0.0     0.0     0.0     0.0     0.0     0.0     0.0     0.0     0.0     0.0     0.2     0.2     0.1     0.2     0.2     0.1     0.1     0.2     0.2     0.1
 2022 143    23    0.00    0.00    0.00    0.02     4.0   0.000   0.004   0.019   0.015     0.1     0.6     0.4     0.0     257    0.00    0.26    0.05    1.52     0.0     0.0     0.0     0.0     0.0     0.0     0.0     0.0     0.0     0.0     18.     38.     27.     35.     26.     13.     13.     25.     21.     13.     0.0     0.0     0.0     0.0     0.0     0.0     0.0     0.0     0.0     0.0     0.0     0.0     0.0     0.0     0.0     0.0     0.0     0.0     0.0     0.0     0.1     0.2     0.1     0.2     0.2     0.1     0.1     0.2     0.1     0.1
 2022 144    24    0.00    0.00    0.00    0.02     4.2   0.000   0.004   0.019   0.016     0.1     0.3     0.1     0.0     222    0.00    0.22    0.04    1.15     0.0     0.0     0.0     0.0     0.0     0.0     0.0     0.0     0.0     0.0     19.     31.     22.     29.     22.     11.     11.     21.     18.     11.     0.0     0.0     0.0     0.0     0.0     0.0     0.0     0.0     0.0     0.0     0.0     0.0     0.0     0.0     0.0     0.0     0.0     0.0     0.0     0.0     0.0     0.1     0.1     0.1     0.1     0.1     0.1     0.1     0.1     0.1
 2022 145    25    0.00    0.00    0.00    0.02     4.4   0.000   0.004   0.019   0.017     0.1     0.3     0.2     0.0     183    0.00    0.18    0.04    0.92     0.0     0.0     0.0     0.0     0.0     0.0     0.0     0.0     0.0     0.0     16.     26.     18.     24.     18.      9.      9.     18.     15.      9.     0.0     0.0     0.0     0.0     0.0     0.0     0.0     0.0     0.0     0.0     0.0     0.0     0.0     0.0     0.0     0.0     0.0     0.0     0.0     0.0     0.0     0.1     0.0     0.1     0.1     0.1     0.1     0.1     0.1     0.1
 2022 146    26    0.00    0.01    0.00    0.02     4.6   0.000   0.005   0.019   0.018     0.1     0.7     0.4     0.0     182    0.00    0.18    0.00    1.07     0.0     0.0     0.0     0.0     0.0     0.0     0.0     0.0     0.0     0.0     16.     26.     19.     25.     18.      9.      9.     17.     14.      9.     0.0     0.0     0.0     0.0     0.0     0.0     0.0     0.0     0.0     0.0     0.0     0.0     0.0     0.0     0.0     0.0     0.0     0.0     0.0     0.0     0.1     0.1     0.1     0.1     0.1     0.1     0.1     0.1     0.1     0.1
 2022 147    27    0.00    0.01    0.00    0.02     4.8   0.000   0.005   0.019   0.019     0.2     0.8     0.5     0.0     193    0.00    0.19    0.00    1.14     0.0     0.0     0.0     0.0     0.0     0.0     0.0     0.0     0.0     0.0     18.     29.     21.     27.     20.      9.      8.     18.     15.      9.     0.0     0.0     0.0     0.0     0.0     0.0     0.0     0.0     0.0     0.0     0.0     0.0     0.0     0.0     0.0     0.0     0.0     0.0     0.0     0.0     0.1     0.1     0.1     0.1     0.1     0.1     0.1     0.1     0.1     0.1
 2022 148    28    0.00    0.01    0.00    0.02     5.0   0.000   0.005   0.019   0.020     0.2     0.8     0.5     0.0     225    0.00    0.23    0.00    1.32     0.0     0.0     0.0     0.0     0.0     0.0     0.0     0.0     0.0     0.0     21.     35.     25.     32.     23.     10.      9.     21.     16.     10.     0.0     0.0     0.0     0.0     0.0     0.0     0.0     0.0     0.0     0.0     0.0     0.0     0.0     0.0     0.0     0.0     0.0     0.0     0.0     0.0     0.2     0.2     0.1     0.2     0.2     0.1     0.1     0.1     0.1     0.1
 2022 149    29    0.00    0.01    0.00    0.02     5.3   0.000   0.005   0.019   0.022     0.2     0.8     0.6     0.0     264    0.00    0.26    0.00    1.55     0.0     0.0     0.0     0.0     0.0     0.0     0.0     0.0     0.0     0.0     24.     42.     30.     38.     27.     12.     11.     24.     19.     12.     0.0     0.0     0.0     0.0     0.0     0.0     0.0     0.0     0.0     0.0     0.0     0.0     0.0     0.0     0.0     0.0     0.0     0.0     0.0     0.0     0.2     0.2     0.1     0.2     0.2     0.1     0.1     0.2     0.1     0.1
 2022 150    30    0.00    0.01    0.00    0.02     5.6   0.000   0.006   0.019   0.024     0.2     0.7     0.6     0.0     319    0.00    0.32    0.00    1.87     0.0     0.0     0.0     0.0     0.0     0.0     0.0     0.0     0.0     0.0     27.     52.     36.     46.     33.     15.     14.     29.     23.     14.     0.0     0.1     0.0     0.0     0.0     0.0     0.0     0.0     0.0     0.0     0.0     0.0     0.0     0.0     0.0     0.0     0.0     0.0     0.0     0.0     0.2     0.3     0.1     0.2     0.2     0.1     0.1     0.2     0.2     0.1
 2022 151    31    0.00    0.01    0.01    0.02     6.0   0.000   0.006   0.019   0.026     0.1     0.6     0.5     0.0     347    0.00    0.35    0.00    1.99     0.0     0.0     0.0     0.0     0.0     0.0     0.0     0.0     0.0     0.0     35.     54.     38.     48.     35.     16.     15.     32.     25.     16.     0.0     0.1     0.0     0.0     0.0     0.0     0.0     0.0     0.0     0.0     0.0     0.0     0.0     0.0     0.0     0.0     0.0     0.0     0.0     0.0     0.2     0.3     0.1     0.2     0.2     0.1     0.1     0.2     0.2     0.1
 2022 152    32    0.00    0.01    0.01    0.02     6.3   0.000   0.006   0.019   0.028     0.2     0.7     0.8     0.0     353    0.00    0.35    0.00    2.08     0.0     0.0     0.0     0.0     0.0     0.0     0.0     0.0     0.0     0.0     34.     54.     38.     49.     36.     17.     16.     33.     26.     17.     0.0     0.1     0.0     0.0     0.0     0.0     0.0     0.0     0.0     0.0     0.0     0.0     0.0     0.0     0.0     0.0     0.0     0.0     0.0     0.0     0.2     0.3     0.1     0.2     0.2     0.1     0.1     0.2     0.2     0.1
 2022 153    33    0.00    0.01    0.01    0.02     6.7   0.000   0.007   0.019   0.030     0.2     0.7     0.8     0.0     336    0.00    0.34    0.00    1.99     0.0     0.0     0.0     0.0     0.0     0.0     0.0     0.0     0.0     0.0     31.     50.     35.     46.     34.     16.     15.     32.     26.     16.     0.0     0.1     0.0     0.0     0.0     0.0     0.0     0.0     0.0     0.0     0.0     0.0     0.0     0.0     0.0     0.0     0.0     0.0     0.0     0.0     0.2     0.3     0.1     0.2     0.2     0.1     0.1     0.2     0.2     0.1
 2022 154    34    0.00    0.01    0.01    0.02     7.0   0.000   0.007   0.019   0.032     0.2     0.7     0.9     0.0     312    0.00    0.31    0.00    1.85     0.0     0.0     0.0     0.0     0.0     0.0     0.0     0.0     0.0     0.0     27.     46.     32.     42.     32.     15.     14.     30.     24.     16.     0.0     0.0     0.0     0.0     0.0     0.0     0.0     0.0     0.0     0.0     0.0     0.0     0.0     0.0     0.0     0.0     0.0     0.0     0.0     0.0     0.2     0.2     0.1     0.2     0.2     0.1     0.1     0.2     0.2     0.1
 2022 155    35    0.00    0.01    0.01    0.02     7.3   0.000   0.007   0.019   0.033     0.2     0.6     0.9     0.0     293    0.00    0.29    0.00    1.74     0.0     0.0     0.0     0.0     0.0     0.0     0.0     0.0     0.0     0.0     22.     43.     30.     40.     30.     15.     14.     29.     23.     15.     0.0     0.0     0.0     0.0     0.0     0.0     0.0     0.0     0.0     0.0     0.0     0.0     0.0     0.0     0.0     0.0     0.0     0.0     0.0     0.0     0.2     0.2     0.1     0.2     0.2     0.1     0.1     0.2     0.2     0.1
 2022 156    36    0.00    0.01    0.01    0.02     7.6   0.000   0.008   0.019   0.035     0.2     0.6     1.0     0.0     316    0.00    0.32    0.00    1.87     0.0     0.0     0.0     0.0     0.0     0.0     0.0     0.0     0.0     0.0     22.     47.     33.     44.     32.     16.     15.     31.     25.     16.     0.0     0.0     0.0     0.0     0.0     0.0     0.0     0.0     0.0     0.0     0.0     0.0     0.0     0.0     0.0     0.0     0.0     0.0     0.0     0.0     0.2     0.2     0.1     0.2     0.2     0.1     0.1     0.2     0.2     0.1
 2022 157    37    0.00    0.01    0.01    0.02     7.9   0.000   0.008   0.019   0.037     0.2     0.6     1.0     0.0     345    0.00    0.35    0.00    2.04     0.0     0.0     0.0     0.0     0.0     0.0     0.0     0.0     0.0     0.0     22.     53.     37.     48.     36.     17.     17.     34.     27.     17.     0.0     0.1     0.0     0.0     0.0     0.0     0.0     0.0     0.0     0.0     0.0     0.0     0.0     0.0     0.0     0.0     0.0     0.0     0.0     0.0     0.2     0.3     0.1     0.2     0.2     0.1     0.1     0.2     0.2     0.1
 2022 158    38    0.00    0.01    0.01    0.02     8.3   0.000   0.008   0.019   0.040     0.2     0.5     1.1     0.0     388    0.00    0.39    0.00    2.29     0.0     0.0     0.0     0.0     0.0     0.0     0.0     0.0     0.0     0.0     27.     59.     41.     54.     40.     20.     18.     38.     31.     19.     0.0     0.1     0.0     0.1     0.0     0.0     0.0     0.0     0.0     0.0     0.0     0.0     0.0     0.0     0.0     0.0     0.0     0.0     0.0     0.0     0.2     0.3     0.1     0.3     0.3     0.1     0.1     0.3     0.2     0.1
 2022 159    39    0.00    0.01    0.01    0.02     8.7   0.000   0.009   0.019   0.042     0.1     0.2     0.4     0.0     419    0.00    0.42    0.00    2.22     0.0     0.0     0.0     0.0     0.0     0.0     0.0     0.0     0.0     0.0     38.     62.     43.     57.     42.     21.     20.     40.     32.     21.     0.0     0.1     0.0     0.1     0.0     0.0     0.0     0.0     0.0     0.0     0.0     0.0     0.0     0.0     0.0     0.0     0.0     0.0     0.0     0.0     0.0     0.3     0.1     0.3     0.3     0.2     0.1     0.3     0.2     0.1
 2022 160    40    0.00    0.01    0.01    0.02     9.2   0.000   0.009   0.019   0.044     0.2     0.5     1.1     0.0     431    0.00    0.43    0.00    2.52     0.0     0.0     0.0     0.0     0.0     0.0     0.0     0.0     0.0     0.0     38.     63.     44.     58.     43.     21.     20.     42.     33.     22.     0.0     0.1     0.0     0.1     0.0     0.0     0.0     0.0     0.0     0.0     0.0     0.0     0.0     0.0     0.0     0.0     0.0     0.0     0.0     0.0     0.2     0.3     0.1     0.3     0.3     0.2     0.1     0.3     0.2     0.1
 2022 161    41    0.00    0.01    0.01    0.02     9.6   0.000   0.010   0.019   0.047     0.3     0.5     1.4     0.0     435    0.00    0.44    0.00    2.58     0.0     0.0     0.0     0.0     0.0     0.0     0.0     0.0     0.0     0.0     38.     63.     44.     59.     43.     21.     20.     42.     34.     22.     0.0     0.1     0.0     0.1     0.0     0.0     0.0     0.0     0.0     0.0     0.0     0.0     0.0     0.0     0.0     0.0     0.0     0.0     0.0     0.0     0.3     0.3     0.1     0.3     0.3     0.2     0.1     0.3     0.2     0.2
 2022 162    42    0.00    0.01    0.02    0.02    10.0   0.000   0.010   0.019   0.050     0.3     0.5     1.4     0.0     442    0.00    0.44    0.00    2.63     0.0     0.0     0.0     0.0     0.0     0.0     0.0     0.0     0.0     0.0     38.     64.     45.     59.     44.     22.     21.     43.     35.     23.     0.0     0.1     0.0     0.1     0.0     0.0     0.0     0.0     0.0     0.0     0.0     0.0     0.0     0.0     0.0     0.0     0.0     0.0     0.0     0.0     0.3     0.3     0.1     0.3     0.3     0.2     0.2     0.3     0.2     0.2
 2022 163    43    0.00    0.02    0.02    0.02    10.5   0.000   0.011   0.019   0.052     0.3     0.4     1.5     0.0     468    0.00    0.47    0.00    2.78     0.0     0.0     0.0     0.0     0.0     0.0     0.0     0.0     0.0     0.0     36.     68.     48.     63.     47.     23.     22.     46.     37.     24.     0.0     0.1     0.0     0.1     0.0     0.0     0.0     0.0     0.0     0.0     0.0     0.0     0.0     0.0     0.0     0.0     0.0     0.0     0.0     0.0     0.3     0.3     0.2     0.3     0.3     0.2     0.2     0.3     0.3     0.2
 2022 164    44    0.00    0.02    0.02    0.02    11.0   0.000   0.011   0.019   0.056     0.3     0.4     1.5     0.0     526    0.00    0.53    0.00    3.12     0.0     0.0     0.0     0.0     0.0     0.0     0.0     0.0     0.0     0.0     36.     78.     55.     72.     53.     27.     25.     52.     42.     27.     0.0     0.1     0.1     0.1     0.1     0.0     0.0     0.1     0.0     0.0     0.0     0.0     0.0     0.0     0.0     0.0     0.0     0.0     0.0     0.0     0.3     0.4     0.2     0.3     0.4     0.2     0.2     0.4     0.3     0.2
 2022 165    45    0.01    0.02    0.02    0.02    11.6   0.000   0.012   0.019   0.059     0.3     0.4     1.6     0.0     618    0.00    0.62    0.00    3.66     0.0     0.0     0.0     0.0     0.0     0.0     0.0     0.0     0.0     0.0     37.     93.     66.     86.     64.     32.     30.     61.     50.     32.     0.0     0.1     0.1     0.1     0.1     0.0     0.0     0.1     0.0     0.0     0.0     0.0     0.0     0.0     0.0     0.0     0.0     0.0     0.0     0.0     0.3     0.5     0.2     0.4     0.4     0.2     0.2     0.4     0.3     0.2
 2022 166    46    0.01    0.02    0.02    0.02    12.3   0.000   0.012   0.019   0.063     0.3     0.3     1.7     0.0     633    0.00    0.63    0.00    3.76     0.0     0.0     0.0     0.0     0.0     0.0     0.0     0.0     0.0     0.0     34.     90.     66.     89.     66.     33.     31.     64.     52.     34.     0.0     0.1     0.1     0.1     0.1     0.0     0.0     0.1     0.1     0.0     0.0     0.0     0.0     0.0     0.0     0.0     0.0     0.0     0.0     0.0     0.2     0.5     0.2     0.4     0.4     0.2     0.2     0.4     0.4     0.2
 2022 167    47    0.01    0.02    0.02    0.02    12.9   0.000   0.013   0.019   0.067     0.3     0.3     1.8     0.0     628    0.00    0.63    0.00    3.75     0.0     0.0     0.0     0.0     0.0     0.0     0.0     0.0     0.0     0.0     31.     84.     62.     89.     66.     34.     32.     65.     54.     35.     0.0     0.1     0.1     0.1     0.1     0.0     0.0     0.1     0.1     0.0     0.0     0.0     0.0     0.0     0.0     0.0     0.0     0.0     0.0     0.0     0.2     0.4     0.2     0.4     0.4     0.2     0.2     0.5     0.4     0.2
 2022 168    48    0.01    0.02    0.03    0.02    13.5   0.000   0.013   0.019   0.070     0.3     0.3     1.8     0.0     583    0.00    0.58    0.00    3.51     0.0     0.0     0.0     0.0     0.0     0.0     0.0     0.0     0.0     0.0     26.     73.     55.     83.     62.     32.     30.     62.     52.     34.     0.0     0.1     0.1     0.1     0.1     0.0     0.0     0.1     0.1     0.0     0.0     0.0     0.0     0.0     0.0     0.0     0.0     0.0     0.0     0.0     0.2     0.4     0.2     0.4     0.4     0.2     0.2     0.4     0.4     0.2
 2022 169    49    0.01    0.02    0.03    0.02    14.1   0.000   0.014   0.019   0.074     0.3     0.2     1.9     0.0     591    0.00    0.59    0.00    3.58     0.0     0.0     0.0     0.0     0.0     0.0     0.0     0.0     0.0     0.0     25.     70.     53.     84.     64.     33.     32.     65.     54.     35.     0.0     0.1     0.1     0.1     0.1     0.0     0.0     0.1     0.1     0.0     0.0     0.0     0.0     0.0     0.0     0.0     0.0     0.0     0.0     0.0     0.2     0.4     0.2     0.4     0.4     0.2     0.2     0.4     0.4     0.2