*Soil Inorganic Nitrogen daily output file

*DSSAT Cropping System Model Ver. 4.8.2.000 -release  NOV 17, 2024 23:49:55

*RUN   1        : silt_loam_13in_irr        MZCER048 UNLI2201    1
 MODEL          : MZCER048 - Maize
 EXPERIMENT     : UNLI2201 MZ IRRIGATED MAIZE PRODUCTION
 DATA PATH      :
 TREATMENT  1   : silt_loam_13in_irr        MZCER048
  
!                                                                                                                                      NO3 (ppm) at soil dep. (cm):                                                    NH4 (ppm) at soil dep. (cm):                                                    Total Inorganic N @dep(ppm):
!                                                                                                                                       0-5    5-15   15-23   23-38   38-53   53-61   61-69   69-84   84-99  99-160     0-5    5-15   15-23   23-38   38-53   53-61   61-69   69-84   84-99  99-160     0-5    5-15   15-23   23-38   38-53   53-61   61-69   69-84   84-99  99-160
@YEAR DOY   DAS  NAPC  NI#M    NIAD    NITD    NHTD   NURTD    NMNC    NITC    NDNC    NIMC    AMLC   NNMNC    NUCM    NLCC    TDNC    NI1D    NI2D    NI3D    NI4D    NI5D    NI6D    NI7D    NI8D    NI9D    NI10    NH1D    NH2D    NH3D    NH4D    NH5D    NH6D    NH7D    NH8D    NH9D    NH10    NT1D    NT2D    NT3D    NT4D    NT5D    NT6D    NT7D    NT8D    NT9D    NT10    
 2022 120     0     0     0     0.0     0.0     0.0     0.0    0.00    0.00    0.00    0.00    0.00    0.00    0.00    0.00    0.00    0.00     0.0     0.0    0.00    0.00    0.00    0.00    0.00    0.00    0.00    0.00    0.00    0.00    0.00    0.00    0.00    0.00    0.00    0.00    0.00    0.00    0.00    0.00    0.00    0.00    0.00    0.00    0.00    0.00    0.00
 2022 121     1     0     0     0.1     0.0     0.1     0.0    0.12    0.00    0.00    0.00    0.00    0.12    0.00    0.00    0.00    0.00     0.0     0.0    0.00    0.00    0.00    0.00    0.00    0.00    0.00    0.02    0.02    0.01    0.01    0.01    0.01    0.01    0.01    0.00    0.00    0.02    0.02    0.01    0.01    0.01    0.01    0.01    0.01    0.00    0.00
 2022 122     2     0     0     0.2     0.0     0.2     0.0    0.23    0.01    0.00    0.00    0.00    0.23    0.00    0.00    0.00    0.00     0.0     0.0    0.00    0.00    0.00    0.00    0.00    0.00    0.00    0.04    0.03    0.02    0.02    0.01    0.01    0.01    0.01    0.01    0.00    0.05    0.03    0.03    0.02    0.01    0.01    0.01    0.01    0.01    0.00
 2022 123     3     0     0     0.3     0.0     0.3     0.0    0.31    0.04    0.00    0.00    0.00    0.31    0.00    0.00    0.00    0.01     0.0     0.0    0.00    0.00    0.00    0.00    0.00    0.00    0.00    0.06    0.04    0.03    0.02    0.02    0.01    0.01    0.01    0.01    0.00    0.06    0.04    0.03    0.02    0.02    0.02    0.01    0.01    0.01    0.01
 2022 124     4     0     0     0.4     0.1     0.3     0.0    0.36    0.06    0.00    0.00    0.00    0.36    0.00    0.00    0.00    0.01     0.0     0.0    0.00    0.00    0.00    0.00    0.00    0.00    0.00    0.07    0.05    0.03    0.02    0.02    0.01    0.01    0.01    0.01    0.00    0.08    0.05    0.04    0.03    0.02    0.02    0.02    0.02    0.01    0.01
 2022 125     5     0     0     0.4     0.1     0.3     0.0    0.39    0.09    0.00    0.00    0.00    0.39    0.00    0.00    0.00    0.02     0.0     0.0    0.01    0.01    0.01    0.00    0.00    0.00    0.00    0.07    0.05    0.04    0.02    0.02    0.01    0.01    0.01    0.01    0.00    0.08    0.06    0.05    0.03    0.02    0.02    0.02    0.02    0.01    0.01
 2022 126     6     0     0     0.4     0.1     0.3     0.0    0.41    0.12    0.00    0.00    0.00    0.41    0.00    0.00    0.00    0.02     0.0     0.0    0.01    0.01    0.01    0.01    0.01    0.00    0.00    0.07    0.05    0.04    0.02    0.02    0.01    0.01    0.01    0.01    0.00    0.09    0.06    0.05    0.03    0.02    0.02    0.02    0.02    0.01    0.01
 2022 127     7     0     0     0.5     0.1     0.3     0.0    0.46    0.15    0.00    0.00    0.00    0.46    0.00    0.00    0.00    0.03     0.0     0.0    0.01    0.01    0.01    0.01    0.01    0.00    0.00    0.08    0.05    0.04    0.03    0.02    0.01    0.01    0.01    0.01    0.00    0.11    0.07    0.06    0.04    0.03    0.02    0.02    0.02    0.01    0.01
 2022 128     8     0     0     0.6     0.2     0.4     0.0    0.60    0.19    0.00    0.00    0.00    0.60    0.00    0.00    0.00    0.04     0.0     0.0    0.01    0.01    0.01    0.01    0.01    0.01    0.00    0.10    0.06    0.05    0.03    0.02    0.02    0.02    0.02    0.01    0.01    0.13    0.09    0.07    0.05    0.03    0.03    0.02    0.02    0.02    0.01
 2022 129     9     0     0     0.8     0.2     0.6     0.0    0.82    0.25    0.00    0.00    0.00    0.82    0.00    0.00    0.00    0.04     0.0     0.0    0.02    0.01    0.01    0.01    0.01    0.01    0.00    0.12    0.08    0.06    0.04    0.03    0.03    0.02    0.02    0.02    0.01    0.16    0.11    0.10    0.07    0.04    0.04    0.04    0.04    0.03    0.01
 2022 130    10     0     0     1.1     0.3     0.8     0.0    1.11    0.34    0.00    0.00    0.00    1.11    0.00    0.00    0.00    0.04     0.0     0.0    0.03    0.02    0.02    0.02    0.01    0.01    0.01    0.15    0.10    0.08    0.06    0.04    0.04    0.03    0.04    0.03    0.02    0.19    0.14    0.12    0.09    0.06    0.06    0.05    0.05    0.04    0.02
 2022 131    11     0     0     1.4     0.5     1.0     0.0    1.45    0.47    0.00    0.00    0.00    1.45    0.00    0.00    0.00    0.05     0.0     0.0    0.05    0.03    0.03    0.02    0.02    0.01    0.01    0.17    0.12    0.10    0.07    0.05    0.05    0.04    0.05    0.04    0.02    0.23    0.17    0.15    0.12    0.08    0.08    0.07    0.07    0.05    0.03
 2022 132    12     0     0     1.8     0.6     1.2     0.0    1.83    0.65    0.00    0.00    0.00    1.83    0.00    0.00    0.00    0.07     0.1     0.1    0.06    0.05    0.05    0.04    0.03    0.02    0.01    0.20    0.15    0.12    0.08    0.06    0.06    0.05    0.06    0.05    0.03    0.27    0.20    0.18    0.14    0.11    0.11    0.09    0.09    0.07    0.04
 2022 133    13     0     0     2.2     0.9     1.4     0.0    2.24    0.87    0.00    0.00    0.00    2.24    0.00    0.00    0.00    0.08     0.1     0.1    0.08    0.07    0.07    0.06    0.05    0.03    0.02    0.23    0.17    0.14    0.09    0.07    0.06    0.06    0.07    0.06    0.04    0.30    0.23    0.21    0.17    0.13    0.14    0.12    0.12    0.09    0.05
 2022 134    14     0     0     2.6     1.1     1.5     0.0    2.63    1.11    0.01    0.00    0.00    2.63    0.00    0.00    0.00    0.09     0.1     0.1    0.09    0.08    0.10    0.08    0.07    0.05    0.03    0.25    0.18    0.15    0.11    0.07    0.07    0.07    0.08    0.06    0.04    0.34    0.26    0.23    0.20    0.16    0.17    0.15    0.15    0.11    0.07
 2022 135    15     0     0     3.0     1.3     1.7     0.0    3.02    1.36    0.01    0.00    0.00    3.02    0.00    0.00    0.00    0.10     0.1     0.1    0.10    0.10    0.11    0.11    0.10    0.07    0.04    0.26    0.20    0.17    0.12    0.08    0.08    0.07    0.08    0.07    0.04    0.36    0.28    0.26    0.22    0.18    0.19    0.18    0.18    0.13    0.08
 2022 136    16     0     0     3.4     1.6     1.8     0.0    3.40    1.63    0.01    0.00    0.00    3.40    0.00    0.00    0.00    0.15     0.1     0.1    0.10    0.10    0.12    0.12    0.12    0.09    0.06    0.28    0.21    0.18    0.13    0.09    0.09    0.08    0.08    0.07    0.05    0.43    0.32    0.29    0.23    0.19    0.20    0.20    0.20    0.16    0.10
 2022 137    17     0     0     3.7     1.9     1.8     0.0    3.76    1.94    0.01    0.00    0.00    3.76    0.00    0.04    0.00    0.23     0.1     0.1    0.11    0.10    0.12    0.13    0.09    0.11    0.10    0.27    0.21    0.18    0.13    0.09    0.09    0.09    0.09    0.07    0.05    0.51    0.34    0.30    0.24    0.19    0.21    0.21    0.18    0.18    0.14
 2022 138    18     0     0     4.0     2.2     1.8     0.0    4.12    2.29    0.02    0.00    0.00    4.12    0.00    0.09    0.00    0.34     0.2     0.1    0.12    0.11    0.12    0.12    0.11    0.10    0.10    0.27    0.20    0.18    0.13    0.09    0.09    0.09    0.09    0.08    0.05    0.60    0.36    0.32    0.26    0.20    0.21    0.20    0.20    0.18    0.14
 2022 139    19     0     0     4.3     2.5     1.8     0.0    4.52    2.67    0.02    0.00    0.00    4.52    0.00    0.15    0.00    0.47     0.2     0.2    0.14    0.12    0.12    0.12    0.12    0.11    0.10    0.26    0.20    0.18    0.13    0.09    0.09    0.09    0.09    0.08    0.05    0.73    0.39    0.34    0.27    0.21    0.21    0.21    0.21    0.19    0.15
 2022 140    20     0     0     4.7     2.9     1.9     0.0    4.94    3.08    0.02    0.00    0.00    4.94    0.00    0.18    0.00    0.61     0.2     0.2    0.16    0.13    0.13    0.13    0.14    0.12    0.11    0.26    0.20    0.17    0.13    0.09    0.09    0.09    0.10    0.08    0.05    0.88    0.43    0.37    0.29    0.22    0.22    0.22    0.23    0.20    0.16
 2022 141    21     0     0     5.1     3.2     1.9     0.0    5.32    3.45    0.02    0.00    0.00    5.32    0.00    0.20    0.00    0.70     0.3     0.2    0.18    0.14    0.15    0.14    0.16    0.14    0.12    0.27    0.20    0.17    0.13    0.09    0.09    0.09    0.10    0.08    0.05    0.96    0.46    0.40    0.32    0.24    0.24    0.23    0.25    0.22    0.17
 2022 142    22     0     0     5.4     3.5     1.9     0.0    5.63    3.77    0.02    0.00    0.00    5.63    0.00    0.20    0.00    0.80     0.3     0.2    0.20    0.16    0.16    0.15    0.17    0.15    0.13    0.27    0.19    0.17    0.13    0.09    0.09    0.09    0.10    0.08    0.05    1.07    0.49    0.42    0.33    0.25    0.25    0.24    0.27    0.23    0.18
 2022 143    23     0     0     5.6     3.8     1.8     0.0    5.83    4.03    0.02    0.00    0.00    5.83    0.00    0.20    0.00    0.70     0.4     0.3    0.22    0.17    0.17    0.16    0.18    0.16    0.14    0.27    0.19    0.17    0.13    0.09    0.09    0.08    0.09    0.08    0.05    0.97    0.59    0.44    0.34    0.26    0.25    0.25    0.28    0.24    0.19
 2022 144    24     0     0     5.7     4.0     1.7     0.0    5.97    4.25    0.02    0.00    0.00    5.97    0.00    0.20    0.00    0.66     0.4     0.3    0.24    0.18    0.18    0.17    0.20    0.17    0.14    0.26    0.18    0.16    0.12    0.09    0.08    0.08    0.09    0.07    0.05    0.92    0.62    0.47    0.36    0.27    0.26    0.25    0.28    0.24    0.19
 2022 145    25     0     0     5.8     4.2     1.6     0.0    6.05    4.43    0.02    0.00    0.00    6.05    0.00    0.22    0.00    0.68     0.4     0.3    0.25    0.19    0.19    0.18    0.21    0.18    0.15    0.25    0.18    0.15    0.12    0.08    0.08    0.07    0.08    0.07    0.04    0.92    0.61    0.48    0.37    0.27    0.26    0.25    0.29    0.25    0.19
 2022 146    26     0     0     5.9     4.4     1.5     0.0    6.15    4.62    0.02    0.00    0.00    6.15    0.00    0.22    0.00    0.86     0.4     0.3    0.26    0.20    0.19    0.19    0.21    0.18    0.15    0.24    0.17    0.15    0.11    0.08    0.07    0.07    0.08    0.06    0.04    1.10    0.59    0.47    0.37    0.28    0.26    0.26    0.29    0.25    0.19
 2022 147    27     0     0     6.0     4.5     1.5     0.0    6.30    4.81    0.02    0.00    0.00    6.30    0.00    0.22    0.00    1.07     0.4     0.3    0.27    0.20    0.20    0.19    0.22    0.19    0.16    0.24    0.17    0.14    0.11    0.08    0.07    0.07    0.07    0.06    0.04    1.31    0.58    0.47    0.38    0.28    0.27    0.26    0.29    0.25    0.20
 2022 148    28     0     0     6.3     4.8     1.5     0.0    6.55    5.03    0.02    0.00    0.00    6.55    0.00    0.22    0.00    1.12     0.4     0.4    0.28    0.22    0.21    0.20    0.23    0.20    0.16    0.24    0.17    0.14    0.11    0.08    0.07    0.07    0.08    0.06    0.04    1.35    0.61    0.50    0.39    0.29    0.28    0.27    0.31    0.26    0.20
 2022 149    29     0     0     6.6     5.0     1.6     0.0    6.87    5.30    0.02    0.00    0.00    6.87    0.00    0.22    0.00    1.17     0.5     0.4    0.30    0.23    0.22    0.21    0.25    0.21    0.17    0.24    0.17    0.15    0.11    0.08    0.08    0.07    0.08    0.07    0.04    1.41    0.64    0.52    0.42    0.31    0.30    0.29    0.32    0.27    0.21
 2022 150    30     0     0     7.0     5.4     1.7     0.0    7.27    5.62    0.02    0.00    0.00    7.27    0.00    0.22    0.00    1.06     0.6     0.4    0.33    0.25    0.24    0.23    0.26    0.22    0.18    0.26    0.18    0.15    0.12    0.08    0.08    0.08    0.08    0.07    0.05    1.31    0.75    0.56    0.44    0.33    0.32    0.31    0.35    0.29    0.22
 2022 151    31     0     0     7.4     5.7     1.7     0.0    7.67    5.96    0.02    0.00    0.00    7.67    0.00    0.22    0.00    1.08     0.6     0.4    0.35    0.26    0.25    0.24    0.28    0.23    0.18    0.25    0.18    0.15    0.12    0.09    0.09    0.08    0.09    0.07    0.05    1.34    0.81    0.60    0.47    0.35    0.34    0.33    0.37    0.31    0.23
 2022 152    32     0     0     7.7     5.9     1.8     0.0    8.07    6.32    0.02    0.00    0.00    8.07    0.14    0.22    0.00    1.20     0.6     0.4    0.37    0.28    0.27    0.26    0.30    0.25    0.19    0.25    0.18    0.16    0.12    0.09    0.09    0.09    0.09    0.08    0.05    1.45    0.78    0.60    0.49    0.37    0.36    0.34    0.39    0.32    0.24
 2022 153    33     0     0     7.8     6.0     1.8     0.0    8.44    6.65    0.02    0.00    0.00    8.44    0.39    0.22    0.00    1.07     0.6     0.4    0.39    0.30    0.28    0.27    0.31    0.26    0.20    0.25    0.18    0.16    0.12    0.09    0.09    0.09    0.09    0.08    0.05    1.32    0.75    0.59    0.51    0.39    0.38    0.36    0.41    0.34    0.25
 2022 154    34     0     0     7.8     6.0     1.8     0.0    8.76    6.96    0.02    0.00    0.00    8.76    0.69    0.22    0.00    0.92     0.5     0.4    0.40    0.31    0.30    0.29    0.33    0.27    0.21    0.25    0.18    0.16    0.12    0.09    0.09    0.09    0.09    0.08    0.05    1.17    0.69    0.57    0.53    0.40    0.39    0.38    0.42    0.35    0.26
 2022 155    35     0     0     7.7     5.9     1.8     0.0    9.05    7.26    0.02    0.00    0.00    9.05    1.03    0.22    0.00    0.77     0.4     0.4    0.41    0.33    0.31    0.30    0.35    0.29    0.22    0.26    0.18    0.16    0.12    0.09    0.09    0.09    0.09    0.08    0.05    1.02    0.62    0.52    0.54    0.42    0.41    0.39    0.44    0.37    0.27
 2022 156    36     0     0     7.6     5.8     1.8     0.0    9.38    7.57    0.02    0.00    0.00    9.38    1.47    0.22    0.00    0.61     0.3     0.3    0.41    0.35    0.33    0.32    0.36    0.30    0.23    0.26    0.18    0.16    0.12    0.09    0.10    0.09    0.09    0.08    0.05    0.87    0.52    0.46    0.54    0.44    0.43    0.41    0.46    0.38    0.28
 2022 157    37     0     0     7.6     5.8     1.8     0.0    9.75    7.92    0.02    0.00    0.00    9.75    1.85    0.22    0.00    0.47     0.3     0.3    0.39    0.36    0.35    0.33    0.38    0.32    0.24    0.26    0.19    0.16    0.13    0.09    0.10    0.09    0.10    0.08    0.05    0.72    0.47    0.44    0.51    0.46    0.45    0.43    0.48    0.40    0.29
 2022 158    38     0     0     7.7     5.8     1.9     0.0   10.17    8.31    0.02    0.00    0.00   10.17    2.18    0.22    0.00    0.23     0.3     0.3    0.35    0.38    0.37    0.35    0.40    0.33    0.25    0.26    0.19    0.16    0.13    0.09    0.10    0.10    0.10    0.09    0.06    0.49    0.51    0.45    0.47    0.48    0.47    0.45    0.50    0.42    0.30
 2022 159    39     0     0     7.8     6.0     1.9     0.0   10.62    8.73    0.02    0.00    0.00   10.62    2.49    0.22    0.00    0.31     0.3     0.3    0.31    0.40    0.39    0.37    0.42    0.35    0.26    0.26    0.19    0.16    0.13    0.09    0.10    0.10    0.10    0.09    0.06    0.57    0.47    0.46    0.44    0.50    0.49    0.47    0.52    0.44    0.31
 2022 160    40     0     0     8.1     6.1     1.9     0.0   11.08    9.16    0.02    0.00    0.00   11.08    2.74    0.22    0.00    0.41     0.3     0.3    0.29    0.42    0.40    0.38    0.44    0.36    0.26    0.25    0.19    0.16    0.13    0.10    0.10    0.10    0.10    0.09    0.06    0.67    0.48    0.45    0.42    0.51    0.51    0.48    0.54    0.45    0.32
 2022 161    41     0     0     8.2     6.3     1.9     0.0   11.53    9.59    0.02    0.00    0.00   11.53    3.00    0.22    0.00    0.39     0.3     0.3    0.29    0.43    0.42    0.40    0.46    0.37    0.27    0.25    0.19    0.16    0.13    0.10    0.10    0.10    0.10    0.09    0.06    0.65    0.48    0.45    0.42    0.53    0.52    0.50    0.56    0.47    0.33
 2022 162    42     0     0     8.4     6.5     2.0     0.0   11.99   10.03    0.02    0.00    0.00   11.99    3.26    0.22    0.00    0.32     0.3     0.3    0.28    0.46    0.44    0.42    0.48    0.39    0.29    0.25    0.19    0.16    0.13    0.10    0.11    0.10    0.10    0.09    0.06    0.57    0.49    0.45    0.41    0.56    0.55    0.52    0.59    0.49    0.35
 2022 163    43     0     0     8.7     6.7     2.0     0.0   12.48   10.50    0.02    0.00    0.00   12.48    3.48    0.22    0.00    0.32     0.3     0.3    0.28    0.47    0.47    0.44    0.51    0.41    0.30    0.25    0.19    0.16    0.13    0.10    0.11    0.11    0.11    0.09    0.06    0.57    0.49    0.45    0.41    0.57    0.57    0.55    0.61    0.51    0.36
 2022 164    44     0     0     9.0     7.0     2.0     0.0   13.02   11.03    0.02    0.00    0.00   13.02    3.76    0.22    0.00    0.32     0.3     0.3    0.29    0.47    0.49    0.47    0.54    0.44    0.31    0.25    0.19    0.16    0.13    0.10    0.11    0.11    0.11    0.10    0.06    0.57    0.49    0.46    0.42    0.57    0.60    0.58    0.64    0.53    0.38
 2022 165    45     0     0     9.2     7.2     2.0     0.0   13.64   11.65    0.02    0.00    0.00   13.64    4.10    0.22    0.00    0.32     0.3     0.3    0.29    0.44    0.52    0.50    0.57    0.46    0.33    0.25    0.18    0.16    0.13    0.10    0.11    0.11    0.11    0.10    0.06    0.57    0.50    0.47    0.42    0.54    0.63    0.61    0.68    0.56    0.40
 2022 166    46     0     0     9.4     7.5     2.0     0.0   14.27   12.28    0.02    0.00    0.00   14.27    4.52    0.22    0.00    0.31     0.3     0.3    0.29    0.41    0.56    0.53    0.61    0.49    0.35    0.25    0.18    0.15    0.13    0.10    0.11    0.11    0.11    0.10    0.07    0.56    0.49    0.46    0.42    0.51    0.67    0.64    0.71    0.59    0.42
 2022 167    47     0     0     9.6     7.7     2.0     0.0   14.90   12.91    0.02    0.00    0.00   14.90    4.94    0.22    0.00    0.32     0.3     0.3    0.29    0.36    0.59    0.56    0.64    0.52    0.37    0.24    0.17    0.15    0.12    0.10    0.11    0.11    0.11    0.10    0.07    0.57    0.48    0.46    0.42    0.46    0.70    0.67    0.75    0.62    0.44
 2022 168    48     0     0     9.8     7.8     2.0     0.0   15.48   13.49    0.02    0.00    0.00   15.48    5.34    0.22    0.00    0.34     0.3     0.3    0.29    0.32    0.63    0.60    0.68    0.55    0.39    0.24    0.17    0.15    0.12    0.10    0.11    0.11    0.11    0.10    0.07    0.58    0.47    0.45    0.42    0.42    0.73    0.70    0.79    0.65    0.45
 2022 169    49     0     0    10.1     8.1     2.0     0.0   16.08   14.08    0.02    0.00    0.00   16.08    5.70    0.22    0.00    0.37     0.3     0.3    0.29    0.28    0.65    0.63    0.71    0.58    0.41    0.24    0.17    0.15    0.13    0.10    0.11    0.11    0.11    0.10    0.07    0.61    0.47    0.44    0.42    0.38    0.75    0.74    0.82    0.68    0.47
 2022 170    50     0     0    10.3     8.3     2.0     0.0   16.65   14.66    0.02    0.00    0.00   16.65    6.00    0.22    0.00    0.42     0.3     0.3    0.29    0.28    0.64    0.66    0.75    0.61    0.43    0.24    0.17    0.15    0.13    0.10    0.11    0.11    0.11    0.10    0.07    0.66    0.46    0.44    0.42    0.38    0.75    0.77    0.86    0.71    0.49
 2022 171    51     0     0    10.6     8.6     2.0     0.0   17.25   15.26    0.02    0.00    0.00   17.25    6.32    0.22    0.00    0.46     0.3     0.3    0.29    0.29    0.61    0.69    0.79    0.64    0.45    0.24    0.16    0.14    0.13    0.10    0.11    0.11    0.11    0.10    0.07    0.70    0.46    0.44    0.42    0.39    0.72    0.80    0.90    0.74    0.51
 2022 172    52     0     0    10.9     8.9     2.0     0.0   17.87   15.91    0.02    0.00    0.00   17.87    6.66    0.22    0.00    0.51     0.3     0.3    0.30    0.29    0.57    0.73    0.83    0.67    0.47    0.24    0.15    0.14    0.12    0.10    0.11    0.11    0.11    0.10    0.07    0.74    0.45    0.43    0.42    0.39    0.68    0.84    0.94    0.78    0.53
 2022 173    53     0     0    11.1     9.1     2.0     0.0   18.48   16.53    0.02    0.00    0.00   18.48    7.04    0.22    0.00    0.55     0.3     0.3    0.29    0.29    0.52    0.75    0.87    0.71    0.49    0.23    0.15    0.14    0.12    0.10    0.11    0.11    0.11    0.10    0.07    0.78    0.44    0.42    0.42    0.39    0.63    0.86    0.98    0.81    0.56
 2022 174    54     0     0    11.3     9.3     2.0     0.0   19.03   17.07    0.02    0.00    0.00   19.03    7.41    0.22    0.00    0.59     0.3     0.3    0.29    0.28    0.47    0.74    0.91    0.74    0.51    0.23    0.15    0.13    0.12    0.10    0.11    0.11    0.11    0.10    0.07    0.82    0.43    0.42    0.41    0.39    0.58    0.85    1.01    0.84    0.58
 2022 175    55     0     0    11.4     9.5     2.0     0.0   19.54   17.58    0.02    0.00    0.00   19.54    7.77    0.22    0.00    0.62     0.3     0.3    0.28    0.28    0.43    0.71    0.94    0.77    0.53    0.23    0.15    0.13    0.12    0.11    0.11    0.11    0.11    0.10    0.07    0.85    0.43    0.41    0.41    0.39    0.54    0.82    1.05    0.87    0.60
 2022 176    56     0     0    11.6     9.6     2.0     0.0   20.03   18.06    0.02    0.00    0.00   20.03    8.12    0.22    0.00    0.65     0.3     0.3    0.28    0.28    0.38    0.65    0.97    0.79    0.55    0.23    0.15    0.13    0.13    0.11    0.11    0.11    0.11    0.10    0.07    0.88    0.43    0.41    0.41    0.39    0.49    0.76    1.08    0.90    0.61
 2022 177    57     0     0    11.6     9.7     2.0     0.0   20.46   18.48    0.02    0.00    0.00   20.46    8.46    0.22    0.00    0.67     0.3     0.3    0.28    0.28    0.34    0.59    1.00    0.82    0.56    0.23    0.15    0.13    0.13    0.11    0.11    0.11    0.11    0.10    0.07    0.91    0.42    0.40    0.40    0.39    0.46    0.70    1.11    0.92    0.63
 2022 178    58     0     0    11.7     9.7     2.0     0.0   20.87   18.88    0.02    0.00    0.00   20.87    8.78    0.22    0.00    0.70     0.3     0.3    0.27    0.27    0.31    0.52    1.02    0.84    0.58    0.24    0.15    0.13    0.13    0.11    0.11    0.11    0.11    0.10    0.07    0.93    0.42    0.40    0.40    0.39    0.42    0.63    1.13    0.95    0.65
 2022 179    59     0     0    11.8     9.8     2.0     0.0   21.27   19.28    0.02    0.00    0.00   21.27    9.10    0.22    0.00    0.72     0.3     0.3    0.27    0.27    0.28    0.46    1.03    0.87    0.59    0.24    0.15    0.13    0.13    0.11    0.12    0.11    0.11    0.10    0.07    0.96    0.42    0.40    0.40    0.39    0.40    0.57    1.14    0.97    0.66
 2022 180    60     0     0    11.9     9.9     2.0     0.0   21.66   19.66    0.02    0.00    0.00   21.66    9.41    0.22    0.00    0.74     0.3     0.3    0.27    0.27    0.28    0.41    1.02    0.89    0.61    0.24    0.15    0.13    0.13    0.11    0.12    0.11    0.11    0.10    0.07    0.98    0.42    0.40    0.40    0.39    0.39    0.52    1.13    0.99    0.68
 2022 181    61     0     0    12.0    10.0     2.0     0.0   22.05   20.05    0.02    0.00    0.00   22.05    9.73    0.22    0.00    0.76     0.3     0.3    0.27    0.27    0.28    0.36    1.00    0.92    0.63    0.24    0.15    0.13    0.13    0.11    0.12    0.11    0.11    0.10    0.07    1.00    0.42    0.40    0.40    0.39    0.40    0.48    1.11    1.02    0.69
 2022 182    62     0     0    12.0    10.0     2.0     0.0   22.47   20.47    0.02    0.00    0.00   22.47   10.06    0.22    0.00    0.78     0.3     0.3    0.27    0.27    0.28    0.33    0.97    0.94    0.64    0.25    0.15    0.13    0.13    0.11    0.12    0.12    0.11    0.10    0.07    1.03    0.42    0.40    0.40    0.39    0.40    0.44    1.08    1.05    0.71
 2022 183    63     0     0    12.1    10.1     2.0     0.0   22.92   20.92    0.02    0.00    0.00   22.92   10.40    0.22    0.00    0.18     0.5     0.3    0.27    0.27    0.28    0.30    0.94    0.97    0.66    0.25    0.14    0.13    0.13    0.11    0.12    0.12    0.11    0.10    0.07    0.43    0.68    0.40    0.40    0.39    0.40    0.42    1.05    1.07    0.73
 2022 184    64     0     0    12.0     9.9     2.0     0.0   23.45   21.43    0.02    0.00    0.00   23.45   11.10    0.22    0.00    0.27     0.3     0.3    0.26    0.27    0.28    0.32    0.90    0.99    0.67    0.26    0.15    0.13    0.13    0.11    0.12    0.12    0.11    0.10    0.07    0.54    0.47    0.42    0.39    0.38    0.40    0.44    1.01    1.09    0.74
 2022 185    65     0     0    12.1    10.1     2.0     0.0   24.01   21.99    0.02    0.00    0.00   24.01   11.52    0.22    0.00    0.37     0.3     0.3    0.26    0.27    0.28    0.33    0.86    1.00    0.69    0.26    0.15    0.13    0.12    0.11    0.13    0.12    0.11    0.10    0.07    0.63    0.46    0.45    0.39    0.38    0.40    0.45    0.97    1.10    0.76
 2022 186    66     0     0    12.1    10.1     2.0     0.0   24.58   22.56    0.02    0.00    0.00   24.58   12.02    0.22    0.00    0.29     0.3     0.4    0.27    0.26    0.28    0.34    0.82    1.01    0.70    0.24    0.16    0.13    0.12    0.11    0.13    0.12    0.11    0.10    0.07    0.53    0.45    0.52    0.39    0.37    0.40    0.46    0.93    1.12    0.77
 2022 187    67     0     0    12.2    10.2     2.0     0.0   25.16   23.13    0.02    0.00    0.00   25.16   12.55    0.22    0.00    0.35     0.3     0.3    0.28    0.26    0.28    0.34    0.77    1.03    0.71    0.25    0.16    0.13    0.12    0.11    0.13    0.12    0.11    0.10    0.07    0.59    0.45    0.47    0.40    0.37    0.41    0.46    0.89    1.13    0.78
 2022 188    68     0     0    12.3    10.2     2.0     0.0   25.76   23.74    0.02    0.00    0.00   25.76   13.07    0.22    0.00    0.31     0.3     0.3    0.29    0.27    0.28    0.33    0.73    1.05    0.73    0.23    0.16    0.13    0.12    0.11    0.13    0.13    0.11    0.10    0.07    0.54    0.46    0.46    0.42    0.38    0.41    0.45    0.85    1.15    0.80
 2022 189    69     0     0    12.4    10.3     2.0     0.0   26.38   24.34    0.02    0.00    0.00   26.38   13.59    0.22    0.00    0.33     0.3     0.3    0.32    0.26    0.28    0.32    0.70    1.07    0.75    0.25    0.16    0.13    0.12    0.11    0.13    0.13    0.11    0.11    0.07    0.58    0.44    0.42    0.44    0.37    0.41    0.45    0.81    1.18    0.82
 2022 190    70     0     0    12.5    10.4     2.0     0.0   27.01   24.97    0.02    0.00    0.00   27.01   14.11    0.22    0.00    0.40     0.3     0.3    0.31    0.26    0.28    0.32    0.67    1.08    0.76    0.23    0.16    0.14    0.12    0.11    0.13    0.13    0.11    0.11    0.07    0.63    0.46    0.43    0.43    0.37    0.40    0.45    0.79    1.19    0.83
 2022 191    71     0     0    12.5    10.5     2.0     0.0   27.64   25.60    0.02    0.00    0.00   27.64   14.67    0.22    0.00    0.42     0.3     0.3    0.30    0.26    0.28    0.32    0.65    1.09    0.78    0.22    0.16    0.14    0.12    0.11    0.13    0.13    0.12    0.11    0.07    0.64    0.47    0.44    0.42    0.37    0.40    0.45    0.77    1.20    0.84
 2022 192    72     0     0    12.6    10.5     2.0     0.0   28.27   26.22    0.02    0.00    0.00   28.27   15.24    0.22    0.00    0.44     0.3     0.3    0.30    0.26    0.27    0.32    0.63    1.09    0.79    0.22    0.16    0.14    0.12    0.11    0.13    0.13    0.12    0.11    0.07    0.66    0.47    0.44    0.42    0.36    0.40    0.45    0.75    1.19    0.86
 2022 193    73     0     0    12.6    10.6     2.1     0.0   28.88   26.83    0.02    0.00    0.00   28.88   15.83    0.22    0.00    0.34     0.3     0.3    0.28    0.27    0.28    0.30    0.60    1.10    0.81    0.22    0.16    0.14    0.12    0.11    0.13    0.13    0.12    0.11    0.07    0.56    0.48    0.44    0.41    0.37    0.40    0.43    0.72    1.21    0.88
 2022 194    74     0     0    12.6    10.6     2.1     0.0   29.47   27.41    0.02    0.00    0.00   29.47   16.39    0.22    0.00    0.33     0.3     0.3    0.28    0.27    0.28    0.29    0.57    1.09    0.83    0.22    0.17    0.14    0.12    0.11    0.13    0.13    0.12    0.11    0.07    0.56    0.48    0.44    0.40    0.37    0.40    0.42    0.69    1.20    0.90
 2022 195    75     0     0    12.7    10.6     2.1     0.0   30.06   27.99    0.02    0.00    0.00   30.06   16.95    0.22    0.00    0.33     0.3     0.3    0.28    0.27    0.28    0.28    0.54    1.06    0.85    0.23    0.17    0.14    0.12    0.11    0.13    0.13    0.12    0.11    0.07    0.55    0.48    0.44    0.40    0.37    0.40    0.41    0.66    1.17    0.92